
---------- Begin Simulation Statistics ----------
simSeconds                                   0.000060                       # Number of seconds simulated (Second)
simTicks                                     59529000                       # Number of ticks simulated (Tick)
finalTick                                    59529000                       # Number of ticks from beginning of simulation (restored from checkpoints and never reset) (Tick)
simFreq                                  1000000000000                       # The number of ticks per simulated second ((Tick/Second))
hostSeconds                                      0.18                       # Real time elapsed on the host (Second)
hostTickRate                                335176565                       # The number of ticks simulated per host second (ticks/s) ((Tick/Second))
hostMemory                                     682644                       # Number of bytes of host memory used (Byte)
simInsts                                        19799                       # Number of instructions simulated (Count)
simOps                                          39389                       # Number of ops (including micro ops) simulated (Count)
hostInstRate                                   111302                       # Simulator instruction rate (inst/s) ((Count/Second))
hostOpRate                                     221387                       # Simulator op (including micro ops) rate (op/s) ((Count/Second))
system.clk_domain.clock                          1000                       # Clock period in ticks (Tick)
system.cpu.numCycles                            59530                       # Number of cpu cycles simulated (Cycle)
system.cpu.numWorkItemsStarted                      0                       # Number of work items this cpu started (Count)
system.cpu.numWorkItemsCompleted                    0                       # Number of work items this cpu completed (Count)
system.cpu.instsAdded                           71213                       # Number of instructions added to the IQ (excludes non-spec) (Count)
system.cpu.nonSpecInstsAdded                        1                       # Number of non-speculative instructions added to the IQ (Count)
system.cpu.instsIssued                          62102                       # Number of instructions issued (Count)
system.cpu.squashedInstsIssued                    187                       # Number of squashed instructions issued (Count)
system.cpu.squashedInstsExamined                31819                       # Number of squashed instructions iterated over during squash; mainly for profiling (Count)
system.cpu.squashedOperandsExamined             41399                       # Number of squashed operands that are examined and possibly removed from graph (Count)
system.cpu.squashedNonSpecRemoved                   1                       # Number of squashed non-spec instructions that were removed (Count)
system.cpu.numIssuedDist::samples               47477                       # Number of insts issued each cycle (Count)
system.cpu.numIssuedDist::mean               1.308044                       # Number of insts issued each cycle (Count)
system.cpu.numIssuedDist::stdev              2.121895                       # Number of insts issued each cycle (Count)
system.cpu.numIssuedDist::underflows                0      0.00%      0.00% # Number of insts issued each cycle (Count)
system.cpu.numIssuedDist::0                     30079     63.35%     63.35% # Number of insts issued each cycle (Count)
system.cpu.numIssuedDist::1                      3670      7.73%     71.08% # Number of insts issued each cycle (Count)
system.cpu.numIssuedDist::2                      2805      5.91%     76.99% # Number of insts issued each cycle (Count)
system.cpu.numIssuedDist::3                      2663      5.61%     82.60% # Number of insts issued each cycle (Count)
system.cpu.numIssuedDist::4                      2430      5.12%     87.72% # Number of insts issued each cycle (Count)
system.cpu.numIssuedDist::5                      2172      4.57%     92.30% # Number of insts issued each cycle (Count)
system.cpu.numIssuedDist::6                      2003      4.22%     96.51% # Number of insts issued each cycle (Count)
system.cpu.numIssuedDist::7                      1005      2.12%     98.63% # Number of insts issued each cycle (Count)
system.cpu.numIssuedDist::8                       650      1.37%    100.00% # Number of insts issued each cycle (Count)
system.cpu.numIssuedDist::overflows                 0      0.00%    100.00% # Number of insts issued each cycle (Count)
system.cpu.numIssuedDist::min_value                 0                       # Number of insts issued each cycle (Count)
system.cpu.numIssuedDist::max_value                 8                       # Number of insts issued each cycle (Count)
system.cpu.numIssuedDist::total                 47477                       # Number of insts issued each cycle (Count)
system.cpu.statFuBusy::No_OpClass                   0      0.00%      0.00% # attempts to use FU when none available (Count)
system.cpu.statFuBusy::IntAlu                     718     80.49%     80.49% # attempts to use FU when none available (Count)
system.cpu.statFuBusy::IntMult                      0      0.00%     80.49% # attempts to use FU when none available (Count)
system.cpu.statFuBusy::IntDiv                       0      0.00%     80.49% # attempts to use FU when none available (Count)
system.cpu.statFuBusy::FloatAdd                     0      0.00%     80.49% # attempts to use FU when none available (Count)
system.cpu.statFuBusy::FloatCmp                     0      0.00%     80.49% # attempts to use FU when none available (Count)
system.cpu.statFuBusy::FloatCvt                     0      0.00%     80.49% # attempts to use FU when none available (Count)
system.cpu.statFuBusy::FloatMult                    0      0.00%     80.49% # attempts to use FU when none available (Count)
system.cpu.statFuBusy::FloatMultAcc                 0      0.00%     80.49% # attempts to use FU when none available (Count)
system.cpu.statFuBusy::FloatDiv                     0      0.00%     80.49% # attempts to use FU when none available (Count)
system.cpu.statFuBusy::FloatMisc                    0      0.00%     80.49% # attempts to use FU when none available (Count)
system.cpu.statFuBusy::FloatSqrt                    0      0.00%     80.49% # attempts to use FU when none available (Count)
system.cpu.statFuBusy::SimdAdd                      0      0.00%     80.49% # attempts to use FU when none available (Count)
system.cpu.statFuBusy::SimdAddAcc                   0      0.00%     80.49% # attempts to use FU when none available (Count)
system.cpu.statFuBusy::SimdAlu                     14      1.57%     82.06% # attempts to use FU when none available (Count)
system.cpu.statFuBusy::SimdCmp                      0      0.00%     82.06% # attempts to use FU when none available (Count)
system.cpu.statFuBusy::SimdCvt                      7      0.78%     82.85% # attempts to use FU when none available (Count)
system.cpu.statFuBusy::SimdMisc                     2      0.22%     83.07% # attempts to use FU when none available (Count)
system.cpu.statFuBusy::SimdMult                     0      0.00%     83.07% # attempts to use FU when none available (Count)
system.cpu.statFuBusy::SimdMultAcc                  0      0.00%     83.07% # attempts to use FU when none available (Count)
system.cpu.statFuBusy::SimdShift                    1      0.11%     83.18% # attempts to use FU when none available (Count)
system.cpu.statFuBusy::SimdShiftAcc                 0      0.00%     83.18% # attempts to use FU when none available (Count)
system.cpu.statFuBusy::SimdDiv                      0      0.00%     83.18% # attempts to use FU when none available (Count)
system.cpu.statFuBusy::SimdSqrt                     0      0.00%     83.18% # attempts to use FU when none available (Count)
system.cpu.statFuBusy::SimdFloatAdd                 0      0.00%     83.18% # attempts to use FU when none available (Count)
system.cpu.statFuBusy::SimdFloatAlu                 0      0.00%     83.18% # attempts to use FU when none available (Count)
system.cpu.statFuBusy::SimdFloatCmp                 0      0.00%     83.18% # attempts to use FU when none available (Count)
system.cpu.statFuBusy::SimdFloatCvt                 0      0.00%     83.18% # attempts to use FU when none available (Count)
system.cpu.statFuBusy::SimdFloatDiv                 0      0.00%     83.18% # attempts to use FU when none available (Count)
system.cpu.statFuBusy::SimdFloatMisc                0      0.00%     83.18% # attempts to use FU when none available (Count)
system.cpu.statFuBusy::SimdFloatMult                0      0.00%     83.18% # attempts to use FU when none available (Count)
system.cpu.statFuBusy::SimdFloatMultAcc             0      0.00%     83.18% # attempts to use FU when none available (Count)
system.cpu.statFuBusy::SimdFloatSqrt                0      0.00%     83.18% # attempts to use FU when none available (Count)
system.cpu.statFuBusy::SimdReduceAdd                0      0.00%     83.18% # attempts to use FU when none available (Count)
system.cpu.statFuBusy::SimdReduceAlu                0      0.00%     83.18% # attempts to use FU when none available (Count)
system.cpu.statFuBusy::SimdReduceCmp                0      0.00%     83.18% # attempts to use FU when none available (Count)
system.cpu.statFuBusy::SimdFloatReduceAdd            0      0.00%     83.18% # attempts to use FU when none available (Count)
system.cpu.statFuBusy::SimdFloatReduceCmp            0      0.00%     83.18% # attempts to use FU when none available (Count)
system.cpu.statFuBusy::SimdAes                      0      0.00%     83.18% # attempts to use FU when none available (Count)
system.cpu.statFuBusy::SimdAesMix                   0      0.00%     83.18% # attempts to use FU when none available (Count)
system.cpu.statFuBusy::SimdSha1Hash                 0      0.00%     83.18% # attempts to use FU when none available (Count)
system.cpu.statFuBusy::SimdSha1Hash2                0      0.00%     83.18% # attempts to use FU when none available (Count)
system.cpu.statFuBusy::SimdSha256Hash               0      0.00%     83.18% # attempts to use FU when none available (Count)
system.cpu.statFuBusy::SimdSha256Hash2              0      0.00%     83.18% # attempts to use FU when none available (Count)
system.cpu.statFuBusy::SimdShaSigma2                0      0.00%     83.18% # attempts to use FU when none available (Count)
system.cpu.statFuBusy::SimdShaSigma3                0      0.00%     83.18% # attempts to use FU when none available (Count)
system.cpu.statFuBusy::SimdPredAlu                  0      0.00%     83.18% # attempts to use FU when none available (Count)
system.cpu.statFuBusy::MemRead                     91     10.20%     93.39% # attempts to use FU when none available (Count)
system.cpu.statFuBusy::MemWrite                    28      3.14%     96.52% # attempts to use FU when none available (Count)
system.cpu.statFuBusy::FloatMemRead                12      1.35%     97.87% # attempts to use FU when none available (Count)
system.cpu.statFuBusy::FloatMemWrite               19      2.13%    100.00% # attempts to use FU when none available (Count)
system.cpu.statFuBusy::IprAccess                    0      0.00%    100.00% # attempts to use FU when none available (Count)
system.cpu.statFuBusy::InstPrefetch                 0      0.00%    100.00% # attempts to use FU when none available (Count)
system.cpu.statIssuedInstType_0::No_OpClass          911      1.47%      1.47% # Number of instructions issued per FU type, per thread (Count)
system.cpu.statIssuedInstType_0::IntAlu         46997     75.68%     77.14% # Number of instructions issued per FU type, per thread (Count)
system.cpu.statIssuedInstType_0::IntMult           19      0.03%     77.17% # Number of instructions issued per FU type, per thread (Count)
system.cpu.statIssuedInstType_0::IntDiv            53      0.09%     77.26% # Number of instructions issued per FU type, per thread (Count)
system.cpu.statIssuedInstType_0::FloatAdd          147      0.24%     77.50% # Number of instructions issued per FU type, per thread (Count)
system.cpu.statIssuedInstType_0::FloatCmp            0      0.00%     77.50% # Number of instructions issued per FU type, per thread (Count)
system.cpu.statIssuedInstType_0::FloatCvt            0      0.00%     77.50% # Number of instructions issued per FU type, per thread (Count)
system.cpu.statIssuedInstType_0::FloatMult            0      0.00%     77.50% # Number of instructions issued per FU type, per thread (Count)
system.cpu.statIssuedInstType_0::FloatMultAcc            0      0.00%     77.50% # Number of instructions issued per FU type, per thread (Count)
system.cpu.statIssuedInstType_0::FloatDiv            0      0.00%     77.50% # Number of instructions issued per FU type, per thread (Count)
system.cpu.statIssuedInstType_0::FloatMisc            0      0.00%     77.50% # Number of instructions issued per FU type, per thread (Count)
system.cpu.statIssuedInstType_0::FloatSqrt            0      0.00%     77.50% # Number of instructions issued per FU type, per thread (Count)
system.cpu.statIssuedInstType_0::SimdAdd          190      0.31%     77.80% # Number of instructions issued per FU type, per thread (Count)
system.cpu.statIssuedInstType_0::SimdAddAcc            0      0.00%     77.80% # Number of instructions issued per FU type, per thread (Count)
system.cpu.statIssuedInstType_0::SimdAlu          621      1.00%     78.80% # Number of instructions issued per FU type, per thread (Count)
system.cpu.statIssuedInstType_0::SimdCmp            0      0.00%     78.80% # Number of instructions issued per FU type, per thread (Count)
system.cpu.statIssuedInstType_0::SimdCvt          618      1.00%     79.80% # Number of instructions issued per FU type, per thread (Count)
system.cpu.statIssuedInstType_0::SimdMisc          570      0.92%     80.72% # Number of instructions issued per FU type, per thread (Count)
system.cpu.statIssuedInstType_0::SimdMult            0      0.00%     80.72% # Number of instructions issued per FU type, per thread (Count)
system.cpu.statIssuedInstType_0::SimdMultAcc            0      0.00%     80.72% # Number of instructions issued per FU type, per thread (Count)
system.cpu.statIssuedInstType_0::SimdShift          136      0.22%     80.93% # Number of instructions issued per FU type, per thread (Count)
system.cpu.statIssuedInstType_0::SimdShiftAcc            0      0.00%     80.93% # Number of instructions issued per FU type, per thread (Count)
system.cpu.statIssuedInstType_0::SimdDiv            0      0.00%     80.93% # Number of instructions issued per FU type, per thread (Count)
system.cpu.statIssuedInstType_0::SimdSqrt            0      0.00%     80.93% # Number of instructions issued per FU type, per thread (Count)
system.cpu.statIssuedInstType_0::SimdFloatAdd            0      0.00%     80.93% # Number of instructions issued per FU type, per thread (Count)
system.cpu.statIssuedInstType_0::SimdFloatAlu            0      0.00%     80.93% # Number of instructions issued per FU type, per thread (Count)
system.cpu.statIssuedInstType_0::SimdFloatCmp            0      0.00%     80.93% # Number of instructions issued per FU type, per thread (Count)
system.cpu.statIssuedInstType_0::SimdFloatCvt            0      0.00%     80.93% # Number of instructions issued per FU type, per thread (Count)
system.cpu.statIssuedInstType_0::SimdFloatDiv            0      0.00%     80.93% # Number of instructions issued per FU type, per thread (Count)
system.cpu.statIssuedInstType_0::SimdFloatMisc            0      0.00%     80.93% # Number of instructions issued per FU type, per thread (Count)
system.cpu.statIssuedInstType_0::SimdFloatMult            0      0.00%     80.93% # Number of instructions issued per FU type, per thread (Count)
system.cpu.statIssuedInstType_0::SimdFloatMultAcc            0      0.00%     80.93% # Number of instructions issued per FU type, per thread (Count)
system.cpu.statIssuedInstType_0::SimdFloatSqrt            0      0.00%     80.93% # Number of instructions issued per FU type, per thread (Count)
system.cpu.statIssuedInstType_0::SimdReduceAdd            0      0.00%     80.93% # Number of instructions issued per FU type, per thread (Count)
system.cpu.statIssuedInstType_0::SimdReduceAlu            0      0.00%     80.93% # Number of instructions issued per FU type, per thread (Count)
system.cpu.statIssuedInstType_0::SimdReduceCmp            0      0.00%     80.93% # Number of instructions issued per FU type, per thread (Count)
system.cpu.statIssuedInstType_0::SimdFloatReduceAdd            0      0.00%     80.93% # Number of instructions issued per FU type, per thread (Count)
system.cpu.statIssuedInstType_0::SimdFloatReduceCmp            0      0.00%     80.93% # Number of instructions issued per FU type, per thread (Count)
system.cpu.statIssuedInstType_0::SimdAes            0      0.00%     80.93% # Number of instructions issued per FU type, per thread (Count)
system.cpu.statIssuedInstType_0::SimdAesMix            0      0.00%     80.93% # Number of instructions issued per FU type, per thread (Count)
system.cpu.statIssuedInstType_0::SimdSha1Hash            0      0.00%     80.93% # Number of instructions issued per FU type, per thread (Count)
system.cpu.statIssuedInstType_0::SimdSha1Hash2            0      0.00%     80.93% # Number of instructions issued per FU type, per thread (Count)
system.cpu.statIssuedInstType_0::SimdSha256Hash            0      0.00%     80.93% # Number of instructions issued per FU type, per thread (Count)
system.cpu.statIssuedInstType_0::SimdSha256Hash2            0      0.00%     80.93% # Number of instructions issued per FU type, per thread (Count)
system.cpu.statIssuedInstType_0::SimdShaSigma2            0      0.00%     80.93% # Number of instructions issued per FU type, per thread (Count)
system.cpu.statIssuedInstType_0::SimdShaSigma3            0      0.00%     80.93% # Number of instructions issued per FU type, per thread (Count)
system.cpu.statIssuedInstType_0::SimdPredAlu            0      0.00%     80.93% # Number of instructions issued per FU type, per thread (Count)
system.cpu.statIssuedInstType_0::MemRead         6984     11.25%     92.18% # Number of instructions issued per FU type, per thread (Count)
system.cpu.statIssuedInstType_0::MemWrite         3372      5.43%     97.61% # Number of instructions issued per FU type, per thread (Count)
system.cpu.statIssuedInstType_0::FloatMemRead          977      1.57%     99.18% # Number of instructions issued per FU type, per thread (Count)
system.cpu.statIssuedInstType_0::FloatMemWrite          507      0.82%    100.00% # Number of instructions issued per FU type, per thread (Count)
system.cpu.statIssuedInstType_0::IprAccess            0      0.00%    100.00% # Number of instructions issued per FU type, per thread (Count)
system.cpu.statIssuedInstType_0::InstPrefetch            0      0.00%    100.00% # Number of instructions issued per FU type, per thread (Count)
system.cpu.statIssuedInstType_0::total          62102                       # Number of instructions issued per FU type, per thread (Count)
system.cpu.issueRate                         1.043205                       # Inst issue rate ((Count/Cycle))
system.cpu.fuBusy                                 892                       # FU busy when requested (Count)
system.cpu.fuBusyRate                        0.014363                       # FU busy rate (busy events/executed inst) ((Count/Count))
system.cpu.intInstQueueReads                   164901                       # Number of integer instruction queue reads (Count)
system.cpu.intInstQueueWrites                   95463                       # Number of integer instruction queue writes (Count)
system.cpu.intInstQueueWakeupAccesses           55458                       # Number of integer instruction queue wakeup accesses (Count)
system.cpu.fpInstQueueReads                      7859                       # Number of floating instruction queue reads (Count)
system.cpu.fpInstQueueWrites                     7612                       # Number of floating instruction queue writes (Count)
system.cpu.fpInstQueueWakeupAccesses             3601                       # Number of floating instruction queue wakeup accesses (Count)
system.cpu.vecInstQueueReads                        0                       # Number of vector instruction queue reads (Count)
system.cpu.vecInstQueueWrites                       0                       # Number of vector instruction queue writes (Count)
system.cpu.vecInstQueueWakeupAccesses               0                       # Number of vector instruction queue wakeup accesses (Count)
system.cpu.intAluAccesses                       58132                       # Number of integer alu accesses (Count)
system.cpu.fpAluAccesses                         3951                       # Number of floating point alu accesses (Count)
system.cpu.vecAluAccesses                           0                       # Number of vector alu accesses (Count)
system.cpu.numInsts                             60403                       # Number of executed instructions (Count)
system.cpu.numLoadInsts                          7620                       # Number of load instructions executed (Count)
system.cpu.numSquashedInsts                      1699                       # Number of squashed instructions skipped in execute (Count)
system.cpu.numSwp                                   0                       # Number of swp insts executed (Count)
system.cpu.numNop                                   0                       # Number of nop insts executed (Count)
system.cpu.numRefs                              11344                       # Number of memory reference insts executed (Count)
system.cpu.numBranches                           5985                       # Number of branches executed (Count)
system.cpu.numStoreInsts                         3724                       # Number of stores executed (Count)
system.cpu.numRate                           1.014665                       # Inst execution rate ((Count/Cycle))
system.cpu.timesIdled                             386                       # Number of times that the entire CPU went into an idle state and unscheduled itself (Count)
system.cpu.idleCycles                           12053                       # Total number of cycles that the CPU has spent unscheduled due to idling (Cycle)
system.cpu.committedInsts                       19799                       # Number of Instructions Simulated (Count)
system.cpu.committedOps                         39389                       # Number of Ops (including micro ops) Simulated (Count)
system.cpu.cpi                               3.006718                       # CPI: Cycles Per Instruction ((Cycle/Count))
system.cpu.totalCpi                          3.006718                       # CPI: Total CPI of All Threads ((Cycle/Count))
system.cpu.ipc                               0.332589                       # IPC: Instructions Per Cycle ((Count/Cycle))
system.cpu.totalIpc                          0.332589                       # IPC: Total IPC of All Threads ((Count/Cycle))
system.cpu.intRegfileReads                      80977                       # Number of integer regfile reads (Count)
system.cpu.intRegfileWrites                     46037                       # Number of integer regfile writes (Count)
system.cpu.fpRegfileReads                        5500                       # Number of floating regfile reads (Count)
system.cpu.fpRegfileWrites                       2893                       # Number of floating regfile writes (Count)
system.cpu.ccRegfileReads                       32500                       # number of cc regfile reads (Count)
system.cpu.ccRegfileWrites                      19274                       # number of cc regfile writes (Count)
system.cpu.miscRegfileReads                     24575                       # number of misc regfile reads (Count)
system.cpu.MemDepUnit__0.insertedLoads           8543                       # Number of loads inserted to the mem dependence unit. (Count)
system.cpu.MemDepUnit__0.insertedStores          4431                       # Number of stores inserted to the mem dependence unit. (Count)
system.cpu.MemDepUnit__0.conflictingLoads           54                       # Number of conflicting loads. (Count)
system.cpu.MemDepUnit__0.conflictingStores           27                       # Number of conflicting stores. (Count)
system.cpu.MemDepUnit__1.insertedLoads              0                       # Number of loads inserted to the mem dependence unit. (Count)
system.cpu.MemDepUnit__1.insertedStores             0                       # Number of stores inserted to the mem dependence unit. (Count)
system.cpu.MemDepUnit__1.conflictingLoads            0                       # Number of conflicting loads. (Count)
system.cpu.MemDepUnit__1.conflictingStores            0                       # Number of conflicting stores. (Count)
system.cpu.MemDepUnit__2.insertedLoads              0                       # Number of loads inserted to the mem dependence unit. (Count)
system.cpu.MemDepUnit__2.insertedStores             0                       # Number of stores inserted to the mem dependence unit. (Count)
system.cpu.MemDepUnit__2.conflictingLoads            0                       # Number of conflicting loads. (Count)
system.cpu.MemDepUnit__2.conflictingStores            0                       # Number of conflicting stores. (Count)
system.cpu.MemDepUnit__3.insertedLoads              0                       # Number of loads inserted to the mem dependence unit. (Count)
system.cpu.MemDepUnit__3.insertedStores             0                       # Number of stores inserted to the mem dependence unit. (Count)
system.cpu.MemDepUnit__3.conflictingLoads            0                       # Number of conflicting loads. (Count)
system.cpu.MemDepUnit__3.conflictingStores            0                       # Number of conflicting stores. (Count)
system.cpu.branchPred.lookups                   10004                       # Number of BP lookups (Count)
system.cpu.branchPred.condPredicted              8119                       # Number of conditional branches predicted (Count)
system.cpu.branchPred.condIncorrect              1254                       # Number of conditional branches incorrect (Count)
system.cpu.branchPred.BTBLookups                 4077                       # Number of BTB lookups (Count)
system.cpu.branchPred.BTBHits                    2941                       # Number of BTB hits (Count)
system.cpu.branchPred.BTBHitRatio            0.721364                       # BTB Hit Ratio (Ratio)
system.cpu.branchPred.RASUsed                     528                       # Number of times the RAS was used to get a target. (Count)
system.cpu.branchPred.RASIncorrect                  0                       # Number of incorrect RAS predictions. (Count)
system.cpu.branchPred.indirectLookups             240                       # Number of indirect predictor lookups. (Count)
system.cpu.branchPred.indirectHits                 13                       # Number of indirect target hits. (Count)
system.cpu.branchPred.indirectMisses              227                       # Number of indirect misses. (Count)
system.cpu.branchPred.indirectMispredicted           91                       # Number of mispredicted indirect branches. (Count)
system.cpu.commit.commitSquashedInsts           31059                       # The number of squashed insts skipped by commit (Count)
system.cpu.commit.branchMispredicts               906                       # The number of times a branch was mispredicted (Count)
system.cpu.commit.numCommittedDist::samples        42955                       # Number of insts commited each cycle (Count)
system.cpu.commit.numCommittedDist::mean     0.916983                       # Number of insts commited each cycle (Count)
system.cpu.commit.numCommittedDist::stdev     1.934726                       # Number of insts commited each cycle (Count)
system.cpu.commit.numCommittedDist::underflows            0      0.00%      0.00% # Number of insts commited each cycle (Count)
system.cpu.commit.numCommittedDist::0           30992     72.15%     72.15% # Number of insts commited each cycle (Count)
system.cpu.commit.numCommittedDist::1            3523      8.20%     80.35% # Number of insts commited each cycle (Count)
system.cpu.commit.numCommittedDist::2            2075      4.83%     85.18% # Number of insts commited each cycle (Count)
system.cpu.commit.numCommittedDist::3            2454      5.71%     90.90% # Number of insts commited each cycle (Count)
system.cpu.commit.numCommittedDist::4            1031      2.40%     93.30% # Number of insts commited each cycle (Count)
system.cpu.commit.numCommittedDist::5             618      1.44%     94.73% # Number of insts commited each cycle (Count)
system.cpu.commit.numCommittedDist::6             310      0.72%     95.46% # Number of insts commited each cycle (Count)
system.cpu.commit.numCommittedDist::7             336      0.78%     96.24% # Number of insts commited each cycle (Count)
system.cpu.commit.numCommittedDist::8            1616      3.76%    100.00% # Number of insts commited each cycle (Count)
system.cpu.commit.numCommittedDist::overflows            0      0.00%    100.00% # Number of insts commited each cycle (Count)
system.cpu.commit.numCommittedDist::min_value            0                       # Number of insts commited each cycle (Count)
system.cpu.commit.numCommittedDist::max_value            8                       # Number of insts commited each cycle (Count)
system.cpu.commit.numCommittedDist::total        42955                       # Number of insts commited each cycle (Count)
system.cpu.commit.instsCommitted                19799                       # Number of instructions committed (Count)
system.cpu.commit.opsCommitted                  39389                       # Number of ops (including micro ops) committed (Count)
system.cpu.commit.memRefs                        7308                       # Number of memory references committed (Count)
system.cpu.commit.loads                          4431                       # Number of loads committed (Count)
system.cpu.commit.amos                              0                       # Number of atomic instructions committed (Count)
system.cpu.commit.membars                           0                       # Number of memory barriers committed (Count)
system.cpu.commit.branches                       4499                       # Number of branches committed (Count)
system.cpu.commit.vectorInstructions                0                       # Number of committed Vector instructions. (Count)
system.cpu.commit.floating                       1932                       # Number of committed floating point instructions. (Count)
system.cpu.commit.integer                       37582                       # Number of committed integer instructions. (Count)
system.cpu.commit.functionCalls                   251                       # Number of function calls committed. (Count)
system.cpu.commit.committedInstType_0::No_OpClass          406      1.03%      1.03% # Class of committed instruction (Count)
system.cpu.commit.committedInstType_0::IntAlu        30484     77.39%     78.42% # Class of committed instruction (Count)
system.cpu.commit.committedInstType_0::IntMult           14      0.04%     78.46% # Class of committed instruction (Count)
system.cpu.commit.committedInstType_0::IntDiv           41      0.10%     78.56% # Class of committed instruction (Count)
system.cpu.commit.committedInstType_0::FloatAdd           78      0.20%     78.76% # Class of committed instruction (Count)
system.cpu.commit.committedInstType_0::FloatCmp            0      0.00%     78.76% # Class of committed instruction (Count)
system.cpu.commit.committedInstType_0::FloatCvt            0      0.00%     78.76% # Class of committed instruction (Count)
system.cpu.commit.committedInstType_0::FloatMult            0      0.00%     78.76% # Class of committed instruction (Count)
system.cpu.commit.committedInstType_0::FloatMultAcc            0      0.00%     78.76% # Class of committed instruction (Count)
system.cpu.commit.committedInstType_0::FloatDiv            0      0.00%     78.76% # Class of committed instruction (Count)
system.cpu.commit.committedInstType_0::FloatMisc            0      0.00%     78.76% # Class of committed instruction (Count)
system.cpu.commit.committedInstType_0::FloatSqrt            0      0.00%     78.76% # Class of committed instruction (Count)
system.cpu.commit.committedInstType_0::SimdAdd           84      0.21%     78.97% # Class of committed instruction (Count)
system.cpu.commit.committedInstType_0::SimdAddAcc            0      0.00%     78.97% # Class of committed instruction (Count)
system.cpu.commit.committedInstType_0::SimdAlu          295      0.75%     79.72% # Class of committed instruction (Count)
system.cpu.commit.committedInstType_0::SimdCmp            0      0.00%     79.72% # Class of committed instruction (Count)
system.cpu.commit.committedInstType_0::SimdCvt          276      0.70%     80.42% # Class of committed instruction (Count)
system.cpu.commit.committedInstType_0::SimdMisc          348      0.88%     81.31% # Class of committed instruction (Count)
system.cpu.commit.committedInstType_0::SimdMult            0      0.00%     81.31% # Class of committed instruction (Count)
system.cpu.commit.committedInstType_0::SimdMultAcc            0      0.00%     81.31% # Class of committed instruction (Count)
system.cpu.commit.committedInstType_0::SimdShift           55      0.14%     81.45% # Class of committed instruction (Count)
system.cpu.commit.committedInstType_0::SimdShiftAcc            0      0.00%     81.45% # Class of committed instruction (Count)
system.cpu.commit.committedInstType_0::SimdDiv            0      0.00%     81.45% # Class of committed instruction (Count)
system.cpu.commit.committedInstType_0::SimdSqrt            0      0.00%     81.45% # Class of committed instruction (Count)
system.cpu.commit.committedInstType_0::SimdFloatAdd            0      0.00%     81.45% # Class of committed instruction (Count)
system.cpu.commit.committedInstType_0::SimdFloatAlu            0      0.00%     81.45% # Class of committed instruction (Count)
system.cpu.commit.committedInstType_0::SimdFloatCmp            0      0.00%     81.45% # Class of committed instruction (Count)
system.cpu.commit.committedInstType_0::SimdFloatCvt            0      0.00%     81.45% # Class of committed instruction (Count)
system.cpu.commit.committedInstType_0::SimdFloatDiv            0      0.00%     81.45% # Class of committed instruction (Count)
system.cpu.commit.committedInstType_0::SimdFloatMisc            0      0.00%     81.45% # Class of committed instruction (Count)
system.cpu.commit.committedInstType_0::SimdFloatMult            0      0.00%     81.45% # Class of committed instruction (Count)
system.cpu.commit.committedInstType_0::SimdFloatMultAcc            0      0.00%     81.45% # Class of committed instruction (Count)
system.cpu.commit.committedInstType_0::SimdFloatSqrt            0      0.00%     81.45% # Class of committed instruction (Count)
system.cpu.commit.committedInstType_0::SimdReduceAdd            0      0.00%     81.45% # Class of committed instruction (Count)
system.cpu.commit.committedInstType_0::SimdReduceAlu            0      0.00%     81.45% # Class of committed instruction (Count)
system.cpu.commit.committedInstType_0::SimdReduceCmp            0      0.00%     81.45% # Class of committed instruction (Count)
system.cpu.commit.committedInstType_0::SimdFloatReduceAdd            0      0.00%     81.45% # Class of committed instruction (Count)
system.cpu.commit.committedInstType_0::SimdFloatReduceCmp            0      0.00%     81.45% # Class of committed instruction (Count)
system.cpu.commit.committedInstType_0::SimdAes            0      0.00%     81.45% # Class of committed instruction (Count)
system.cpu.commit.committedInstType_0::SimdAesMix            0      0.00%     81.45% # Class of committed instruction (Count)
system.cpu.commit.committedInstType_0::SimdSha1Hash            0      0.00%     81.45% # Class of committed instruction (Count)
system.cpu.commit.committedInstType_0::SimdSha1Hash2            0      0.00%     81.45% # Class of committed instruction (Count)
system.cpu.commit.committedInstType_0::SimdSha256Hash            0      0.00%     81.45% # Class of committed instruction (Count)
system.cpu.commit.committedInstType_0::SimdSha256Hash2            0      0.00%     81.45% # Class of committed instruction (Count)
system.cpu.commit.committedInstType_0::SimdShaSigma2            0      0.00%     81.45% # Class of committed instruction (Count)
system.cpu.commit.committedInstType_0::SimdShaSigma3            0      0.00%     81.45% # Class of committed instruction (Count)
system.cpu.commit.committedInstType_0::SimdPredAlu            0      0.00%     81.45% # Class of committed instruction (Count)
system.cpu.commit.committedInstType_0::MemRead         4111     10.44%     91.88% # Class of committed instruction (Count)
system.cpu.commit.committedInstType_0::MemWrite         2477      6.29%     98.17% # Class of committed instruction (Count)
system.cpu.commit.committedInstType_0::FloatMemRead          320      0.81%     98.98% # Class of committed instruction (Count)
system.cpu.commit.committedInstType_0::FloatMemWrite          400      1.02%    100.00% # Class of committed instruction (Count)
system.cpu.commit.committedInstType_0::IprAccess            0      0.00%    100.00% # Class of committed instruction (Count)
system.cpu.commit.committedInstType_0::InstPrefetch            0      0.00%    100.00% # Class of committed instruction (Count)
system.cpu.commit.committedInstType_0::total        39389                       # Class of committed instruction (Count)
system.cpu.commit.commitEligibleSamples          1616                       # number cycles where commit BW limit reached (Cycle)
system.cpu.dcache.demandHits::cpu.data           8634                       # number of demand (read+write) hits (Count)
system.cpu.dcache.demandHits::total              8634                       # number of demand (read+write) hits (Count)
system.cpu.dcache.overallHits::cpu.data          8634                       # number of overall hits (Count)
system.cpu.dcache.overallHits::total             8634                       # number of overall hits (Count)
system.cpu.dcache.demandMisses::cpu.data         1250                       # number of demand (read+write) misses (Count)
system.cpu.dcache.demandMisses::total            1250                       # number of demand (read+write) misses (Count)
system.cpu.dcache.overallMisses::cpu.data         1250                       # number of overall misses (Count)
system.cpu.dcache.overallMisses::total           1250                       # number of overall misses (Count)
system.cpu.dcache.demandMissLatency::cpu.data     70127000                       # number of demand (read+write) miss ticks (Tick)
system.cpu.dcache.demandMissLatency::total     70127000                       # number of demand (read+write) miss ticks (Tick)
system.cpu.dcache.overallMissLatency::cpu.data     70127000                       # number of overall miss ticks (Tick)
system.cpu.dcache.overallMissLatency::total     70127000                       # number of overall miss ticks (Tick)
system.cpu.dcache.demandAccesses::cpu.data         9884                       # number of demand (read+write) accesses (Count)
system.cpu.dcache.demandAccesses::total          9884                       # number of demand (read+write) accesses (Count)
system.cpu.dcache.overallAccesses::cpu.data         9884                       # number of overall (read+write) accesses (Count)
system.cpu.dcache.overallAccesses::total         9884                       # number of overall (read+write) accesses (Count)
system.cpu.dcache.demandMissRate::cpu.data     0.126467                       # miss rate for demand accesses (Ratio)
system.cpu.dcache.demandMissRate::total      0.126467                       # miss rate for demand accesses (Ratio)
system.cpu.dcache.overallMissRate::cpu.data     0.126467                       # miss rate for overall accesses (Ratio)
system.cpu.dcache.overallMissRate::total     0.126467                       # miss rate for overall accesses (Ratio)
system.cpu.dcache.demandAvgMissLatency::cpu.data 56101.600000                       # average overall miss latency ((Cycle/Count))
system.cpu.dcache.demandAvgMissLatency::total 56101.600000                       # average overall miss latency ((Cycle/Count))
system.cpu.dcache.overallAvgMissLatency::cpu.data 56101.600000                       # average overall miss latency ((Cycle/Count))
system.cpu.dcache.overallAvgMissLatency::total 56101.600000                       # average overall miss latency ((Cycle/Count))
system.cpu.dcache.blockedCycles::no_mshrs          754                       # number of cycles access was blocked (Cycle)
system.cpu.dcache.blockedCycles::no_targets            0                       # number of cycles access was blocked (Cycle)
system.cpu.dcache.blockedCauses::no_mshrs           52                       # number of times access was blocked (Count)
system.cpu.dcache.blockedCauses::no_targets            0                       # number of times access was blocked (Count)
system.cpu.dcache.avgBlocked::no_mshrs      14.500000                       # average number of cycles each access was blocked ((Cycle/Count))
system.cpu.dcache.avgBlocked::no_targets          nan                       # average number of cycles each access was blocked ((Cycle/Count))
system.cpu.dcache.writebacks::writebacks           10                       # number of writebacks (Count)
system.cpu.dcache.writebacks::total                10                       # number of writebacks (Count)
system.cpu.dcache.demandMshrHits::cpu.data          721                       # number of demand (read+write) MSHR hits (Count)
system.cpu.dcache.demandMshrHits::total           721                       # number of demand (read+write) MSHR hits (Count)
system.cpu.dcache.overallMshrHits::cpu.data          721                       # number of overall MSHR hits (Count)
system.cpu.dcache.overallMshrHits::total          721                       # number of overall MSHR hits (Count)
system.cpu.dcache.demandMshrMisses::cpu.data          529                       # number of demand (read+write) MSHR misses (Count)
system.cpu.dcache.demandMshrMisses::total          529                       # number of demand (read+write) MSHR misses (Count)
system.cpu.dcache.overallMshrMisses::cpu.data          529                       # number of overall MSHR misses (Count)
system.cpu.dcache.overallMshrMisses::total          529                       # number of overall MSHR misses (Count)
system.cpu.dcache.demandMshrMissLatency::cpu.data     32091000                       # number of demand (read+write) MSHR miss ticks (Tick)
system.cpu.dcache.demandMshrMissLatency::total     32091000                       # number of demand (read+write) MSHR miss ticks (Tick)
system.cpu.dcache.overallMshrMissLatency::cpu.data     32091000                       # number of overall MSHR miss ticks (Tick)
system.cpu.dcache.overallMshrMissLatency::total     32091000                       # number of overall MSHR miss ticks (Tick)
system.cpu.dcache.demandMshrMissRate::cpu.data     0.053521                       # mshr miss ratio for demand accesses (Ratio)
system.cpu.dcache.demandMshrMissRate::total     0.053521                       # mshr miss ratio for demand accesses (Ratio)
system.cpu.dcache.overallMshrMissRate::cpu.data     0.053521                       # mshr miss ratio for overall accesses (Ratio)
system.cpu.dcache.overallMshrMissRate::total     0.053521                       # mshr miss ratio for overall accesses (Ratio)
system.cpu.dcache.demandAvgMshrMissLatency::cpu.data 60663.516068                       # average overall mshr miss latency ((Cycle/Count))
system.cpu.dcache.demandAvgMshrMissLatency::total 60663.516068                       # average overall mshr miss latency ((Cycle/Count))
system.cpu.dcache.overallAvgMshrMissLatency::cpu.data 60663.516068                       # average overall mshr miss latency ((Cycle/Count))
system.cpu.dcache.overallAvgMshrMissLatency::total 60663.516068                       # average overall mshr miss latency ((Cycle/Count))
system.cpu.dcache.replacements                     37                       # number of replacements (Count)
system.cpu.dcache.ReadReq.hits::cpu.data         6008                       # number of ReadReq hits (Count)
system.cpu.dcache.ReadReq.hits::total            6008                       # number of ReadReq hits (Count)
system.cpu.dcache.ReadReq.misses::cpu.data          998                       # number of ReadReq misses (Count)
system.cpu.dcache.ReadReq.misses::total           998                       # number of ReadReq misses (Count)
system.cpu.dcache.ReadReq.missLatency::cpu.data     55456000                       # number of ReadReq miss ticks (Tick)
system.cpu.dcache.ReadReq.missLatency::total     55456000                       # number of ReadReq miss ticks (Tick)
system.cpu.dcache.ReadReq.accesses::cpu.data         7006                       # number of ReadReq accesses(hits+misses) (Count)
system.cpu.dcache.ReadReq.accesses::total         7006                       # number of ReadReq accesses(hits+misses) (Count)
system.cpu.dcache.ReadReq.missRate::cpu.data     0.142449                       # miss rate for ReadReq accesses (Ratio)
system.cpu.dcache.ReadReq.missRate::total     0.142449                       # miss rate for ReadReq accesses (Ratio)
system.cpu.dcache.ReadReq.avgMissLatency::cpu.data 55567.134269                       # average ReadReq miss latency ((Tick/Count))
system.cpu.dcache.ReadReq.avgMissLatency::total 55567.134269                       # average ReadReq miss latency ((Tick/Count))
system.cpu.dcache.ReadReq.mshrHits::cpu.data          717                       # number of ReadReq MSHR hits (Count)
system.cpu.dcache.ReadReq.mshrHits::total          717                       # number of ReadReq MSHR hits (Count)
system.cpu.dcache.ReadReq.mshrMisses::cpu.data          281                       # number of ReadReq MSHR misses (Count)
system.cpu.dcache.ReadReq.mshrMisses::total          281                       # number of ReadReq MSHR misses (Count)
system.cpu.dcache.ReadReq.mshrMissLatency::cpu.data     18107000                       # number of ReadReq MSHR miss ticks (Tick)
system.cpu.dcache.ReadReq.mshrMissLatency::total     18107000                       # number of ReadReq MSHR miss ticks (Tick)
system.cpu.dcache.ReadReq.mshrMissRate::cpu.data     0.040108                       # mshr miss rate for ReadReq accesses (Ratio)
system.cpu.dcache.ReadReq.mshrMissRate::total     0.040108                       # mshr miss rate for ReadReq accesses (Ratio)
system.cpu.dcache.ReadReq.avgMshrMissLatency::cpu.data 64437.722420                       # average ReadReq mshr miss latency ((Tick/Count))
system.cpu.dcache.ReadReq.avgMshrMissLatency::total 64437.722420                       # average ReadReq mshr miss latency ((Tick/Count))
system.cpu.dcache.WriteReq.hits::cpu.data         2626                       # number of WriteReq hits (Count)
system.cpu.dcache.WriteReq.hits::total           2626                       # number of WriteReq hits (Count)
system.cpu.dcache.WriteReq.misses::cpu.data          252                       # number of WriteReq misses (Count)
system.cpu.dcache.WriteReq.misses::total          252                       # number of WriteReq misses (Count)
system.cpu.dcache.WriteReq.missLatency::cpu.data     14671000                       # number of WriteReq miss ticks (Tick)
system.cpu.dcache.WriteReq.missLatency::total     14671000                       # number of WriteReq miss ticks (Tick)
system.cpu.dcache.WriteReq.accesses::cpu.data         2878                       # number of WriteReq accesses(hits+misses) (Count)
system.cpu.dcache.WriteReq.accesses::total         2878                       # number of WriteReq accesses(hits+misses) (Count)
system.cpu.dcache.WriteReq.missRate::cpu.data     0.087561                       # miss rate for WriteReq accesses (Ratio)
system.cpu.dcache.WriteReq.missRate::total     0.087561                       # miss rate for WriteReq accesses (Ratio)
system.cpu.dcache.WriteReq.avgMissLatency::cpu.data 58218.253968                       # average WriteReq miss latency ((Tick/Count))
system.cpu.dcache.WriteReq.avgMissLatency::total 58218.253968                       # average WriteReq miss latency ((Tick/Count))
system.cpu.dcache.WriteReq.mshrHits::cpu.data            4                       # number of WriteReq MSHR hits (Count)
system.cpu.dcache.WriteReq.mshrHits::total            4                       # number of WriteReq MSHR hits (Count)
system.cpu.dcache.WriteReq.mshrMisses::cpu.data          248                       # number of WriteReq MSHR misses (Count)
system.cpu.dcache.WriteReq.mshrMisses::total          248                       # number of WriteReq MSHR misses (Count)
system.cpu.dcache.WriteReq.mshrMissLatency::cpu.data     13984000                       # number of WriteReq MSHR miss ticks (Tick)
system.cpu.dcache.WriteReq.mshrMissLatency::total     13984000                       # number of WriteReq MSHR miss ticks (Tick)
system.cpu.dcache.WriteReq.mshrMissRate::cpu.data     0.086171                       # mshr miss rate for WriteReq accesses (Ratio)
system.cpu.dcache.WriteReq.mshrMissRate::total     0.086171                       # mshr miss rate for WriteReq accesses (Ratio)
system.cpu.dcache.WriteReq.avgMshrMissLatency::cpu.data 56387.096774                       # average WriteReq mshr miss latency ((Tick/Count))
system.cpu.dcache.WriteReq.avgMshrMissLatency::total 56387.096774                       # average WriteReq mshr miss latency ((Tick/Count))
system.cpu.dcache.power_state.pwrStateResidencyTicks::UNDEFINED     59529000                       # Cumulative time (in ticks) in various power states (Tick)
system.cpu.dcache.tags.tagsInUse           295.055354                       # Average ticks per tags in use ((Tick/Count))
system.cpu.dcache.tags.totalRefs                 9163                       # Total number of references to valid blocks. (Count)
system.cpu.dcache.tags.sampledRefs                529                       # Sample count of references to valid blocks. (Count)
system.cpu.dcache.tags.avgRefs              17.321361                       # Average number of references to valid blocks. ((Count/Count))
system.cpu.dcache.tags.warmupTick              155000                       # The tick when the warmup percentage was hit. (Tick)
system.cpu.dcache.tags.occupancies::cpu.data   295.055354                       # Average occupied blocks per tick, per requestor ((Count/Tick))
system.cpu.dcache.tags.avgOccs::cpu.data     0.288140                       # Average percentage of cache occupancy ((Ratio/Tick))
system.cpu.dcache.tags.avgOccs::total        0.288140                       # Average percentage of cache occupancy ((Ratio/Tick))
system.cpu.dcache.tags.occupanciesTaskId::1024          492                       # Occupied blocks per task id (Count)
system.cpu.dcache.tags.ageTaskId_1024::0           87                       # Occupied blocks per task id, per block age (Count)
system.cpu.dcache.tags.ageTaskId_1024::1          405                       # Occupied blocks per task id, per block age (Count)
system.cpu.dcache.tags.ratioOccsTaskId::1024     0.480469                       # Ratio of occupied blocks and all blocks, per task id (Ratio)
system.cpu.dcache.tags.tagAccesses              20297                       # Number of tag accesses (Count)
system.cpu.dcache.tags.dataAccesses             20297                       # Number of data accesses (Count)
system.cpu.dcache.tags.power_state.pwrStateResidencyTicks::UNDEFINED     59529000                       # Cumulative time (in ticks) in various power states (Tick)
system.cpu.decode.idleCycles                    21418                       # Number of cycles decode is idle (Cycle)
system.cpu.decode.blockedCycles                 13230                       # Number of cycles decode is blocked (Cycle)
system.cpu.decode.runCycles                     10378                       # Number of cycles decode is running (Cycle)
system.cpu.decode.unblockCycles                  1464                       # Number of cycles decode is unblocking (Cycle)
system.cpu.decode.squashCycles                    987                       # Number of cycles decode is squashing (Cycle)
system.cpu.decode.branchResolved                 3025                       # Number of times decode resolved a branch (Count)
system.cpu.decode.branchMispred                   353                       # Number of times decode detected a branch misprediction (Count)
system.cpu.decode.decodedInsts                  80001                       # Number of instructions handled by decode (Count)
system.cpu.decode.squashedInsts                  1720                       # Number of squashed instructions handled by decode (Count)
system.cpu.dtb_walker_cache.blockedCycles::no_mshrs            0                       # number of cycles access was blocked (Cycle)
system.cpu.dtb_walker_cache.blockedCycles::no_targets            0                       # number of cycles access was blocked (Cycle)
system.cpu.dtb_walker_cache.blockedCauses::no_mshrs            0                       # number of times access was blocked (Count)
system.cpu.dtb_walker_cache.blockedCauses::no_targets            0                       # number of times access was blocked (Count)
system.cpu.dtb_walker_cache.avgBlocked::no_mshrs          nan                       # average number of cycles each access was blocked ((Cycle/Count))
system.cpu.dtb_walker_cache.avgBlocked::no_targets          nan                       # average number of cycles each access was blocked ((Cycle/Count))
system.cpu.dtb_walker_cache.replacements            0                       # number of replacements (Count)
system.cpu.dtb_walker_cache.power_state.pwrStateResidencyTicks::UNDEFINED     59529000                       # Cumulative time (in ticks) in various power states (Tick)
system.cpu.dtb_walker_cache.tags.tagsInUse            0                       # Average ticks per tags in use ((Tick/Count))
system.cpu.dtb_walker_cache.tags.totalRefs            0                       # Total number of references to valid blocks. (Count)
system.cpu.dtb_walker_cache.tags.sampledRefs            0                       # Sample count of references to valid blocks. (Count)
system.cpu.dtb_walker_cache.tags.avgRefs          nan                       # Average number of references to valid blocks. ((Count/Count))
system.cpu.dtb_walker_cache.tags.warmupTick            0                       # The tick when the warmup percentage was hit. (Tick)
system.cpu.dtb_walker_cache.tags.tagAccesses            0                       # Number of tag accesses (Count)
system.cpu.dtb_walker_cache.tags.dataAccesses            0                       # Number of data accesses (Count)
system.cpu.dtb_walker_cache.tags.power_state.pwrStateResidencyTicks::UNDEFINED     59529000                       # Cumulative time (in ticks) in various power states (Tick)
system.cpu.fetch.icacheStallCycles              23130                       # Number of cycles fetch is stalled on an Icache miss (Cycle)
system.cpu.fetch.insts                          45309                       # Number of instructions fetch has processed (Count)
system.cpu.fetch.branches                       10004                       # Number of branches that fetch encountered (Count)
system.cpu.fetch.predictedBranches               3482                       # Number of branches that fetch has predicted taken (Count)
system.cpu.fetch.cycles                         23010                       # Number of cycles fetch has run and was not squashing or blocked (Cycle)
system.cpu.fetch.squashCycles                    2670                       # Number of cycles fetch has spent squashing (Cycle)
system.cpu.fetch.pendingQuiesceStallCycles            2                       # Number of stall cycles due to pending quiesce instructions (Cycle)
system.cpu.fetch.cacheLines                      6011                       # Number of cache lines fetched (Count)
system.cpu.fetch.icacheSquashes                   664                       # Number of outstanding Icache misses that were squashed (Count)
system.cpu.fetch.nisnDist::samples              47477                       # Number of instructions fetched each cycle (Total) (Count)
system.cpu.fetch.nisnDist::mean              1.876572                       # Number of instructions fetched each cycle (Total) (Count)
system.cpu.fetch.nisnDist::stdev             3.173776                       # Number of instructions fetched each cycle (Total) (Count)
system.cpu.fetch.nisnDist::underflows               0      0.00%      0.00% # Number of instructions fetched each cycle (Total) (Count)
system.cpu.fetch.nisnDist::0                    33769     71.13%     71.13% # Number of instructions fetched each cycle (Total) (Count)
system.cpu.fetch.nisnDist::1                      623      1.31%     72.44% # Number of instructions fetched each cycle (Total) (Count)
system.cpu.fetch.nisnDist::2                      565      1.19%     73.63% # Number of instructions fetched each cycle (Total) (Count)
system.cpu.fetch.nisnDist::3                      670      1.41%     75.04% # Number of instructions fetched each cycle (Total) (Count)
system.cpu.fetch.nisnDist::4                     1059      2.23%     77.27% # Number of instructions fetched each cycle (Total) (Count)
system.cpu.fetch.nisnDist::5                      991      2.09%     79.36% # Number of instructions fetched each cycle (Total) (Count)
system.cpu.fetch.nisnDist::6                      739      1.56%     80.91% # Number of instructions fetched each cycle (Total) (Count)
system.cpu.fetch.nisnDist::7                      782      1.65%     82.56% # Number of instructions fetched each cycle (Total) (Count)
system.cpu.fetch.nisnDist::8                     8279     17.44%    100.00% # Number of instructions fetched each cycle (Total) (Count)
system.cpu.fetch.nisnDist::overflows                0      0.00%    100.00% # Number of instructions fetched each cycle (Total) (Count)
system.cpu.fetch.nisnDist::min_value                0                       # Number of instructions fetched each cycle (Total) (Count)
system.cpu.fetch.nisnDist::max_value                8                       # Number of instructions fetched each cycle (Total) (Count)
system.cpu.fetch.nisnDist::total                47477                       # Number of instructions fetched each cycle (Total) (Count)
system.cpu.fetch.branchRate                  0.168050                       # Number of branch fetches per cycle (Ratio)
system.cpu.fetch.rate                        0.761112                       # Number of inst fetches per cycle ((Count/Cycle))
system.cpu.icache.demandHits::cpu.inst           5033                       # number of demand (read+write) hits (Count)
system.cpu.icache.demandHits::total              5033                       # number of demand (read+write) hits (Count)
system.cpu.icache.overallHits::cpu.inst          5033                       # number of overall hits (Count)
system.cpu.icache.overallHits::total             5033                       # number of overall hits (Count)
system.cpu.icache.demandMisses::cpu.inst          978                       # number of demand (read+write) misses (Count)
system.cpu.icache.demandMisses::total             978                       # number of demand (read+write) misses (Count)
system.cpu.icache.overallMisses::cpu.inst          978                       # number of overall misses (Count)
system.cpu.icache.overallMisses::total            978                       # number of overall misses (Count)
system.cpu.icache.demandMissLatency::cpu.inst     53922000                       # number of demand (read+write) miss ticks (Tick)
system.cpu.icache.demandMissLatency::total     53922000                       # number of demand (read+write) miss ticks (Tick)
system.cpu.icache.overallMissLatency::cpu.inst     53922000                       # number of overall miss ticks (Tick)
system.cpu.icache.overallMissLatency::total     53922000                       # number of overall miss ticks (Tick)
system.cpu.icache.demandAccesses::cpu.inst         6011                       # number of demand (read+write) accesses (Count)
system.cpu.icache.demandAccesses::total          6011                       # number of demand (read+write) accesses (Count)
system.cpu.icache.overallAccesses::cpu.inst         6011                       # number of overall (read+write) accesses (Count)
system.cpu.icache.overallAccesses::total         6011                       # number of overall (read+write) accesses (Count)
system.cpu.icache.demandMissRate::cpu.inst     0.162702                       # miss rate for demand accesses (Ratio)
system.cpu.icache.demandMissRate::total      0.162702                       # miss rate for demand accesses (Ratio)
system.cpu.icache.overallMissRate::cpu.inst     0.162702                       # miss rate for overall accesses (Ratio)
system.cpu.icache.overallMissRate::total     0.162702                       # miss rate for overall accesses (Ratio)
system.cpu.icache.demandAvgMissLatency::cpu.inst 55134.969325                       # average overall miss latency ((Cycle/Count))
system.cpu.icache.demandAvgMissLatency::total 55134.969325                       # average overall miss latency ((Cycle/Count))
system.cpu.icache.overallAvgMissLatency::cpu.inst 55134.969325                       # average overall miss latency ((Cycle/Count))
system.cpu.icache.overallAvgMissLatency::total 55134.969325                       # average overall miss latency ((Cycle/Count))
system.cpu.icache.blockedCycles::no_mshrs           42                       # number of cycles access was blocked (Cycle)
system.cpu.icache.blockedCycles::no_targets            0                       # number of cycles access was blocked (Cycle)
system.cpu.icache.blockedCauses::no_mshrs            2                       # number of times access was blocked (Count)
system.cpu.icache.blockedCauses::no_targets            0                       # number of times access was blocked (Count)
system.cpu.icache.avgBlocked::no_mshrs             21                       # average number of cycles each access was blocked ((Cycle/Count))
system.cpu.icache.avgBlocked::no_targets          nan                       # average number of cycles each access was blocked ((Cycle/Count))
system.cpu.icache.writebacks::writebacks           70                       # number of writebacks (Count)
system.cpu.icache.writebacks::total                70                       # number of writebacks (Count)
system.cpu.icache.demandMshrHits::cpu.inst          251                       # number of demand (read+write) MSHR hits (Count)
system.cpu.icache.demandMshrHits::total           251                       # number of demand (read+write) MSHR hits (Count)
system.cpu.icache.overallMshrHits::cpu.inst          251                       # number of overall MSHR hits (Count)
system.cpu.icache.overallMshrHits::total          251                       # number of overall MSHR hits (Count)
system.cpu.icache.demandMshrMisses::cpu.inst          727                       # number of demand (read+write) MSHR misses (Count)
system.cpu.icache.demandMshrMisses::total          727                       # number of demand (read+write) MSHR misses (Count)
system.cpu.icache.overallMshrMisses::cpu.inst          727                       # number of overall MSHR misses (Count)
system.cpu.icache.overallMshrMisses::total          727                       # number of overall MSHR misses (Count)
system.cpu.icache.demandMshrMissLatency::cpu.inst     42274000                       # number of demand (read+write) MSHR miss ticks (Tick)
system.cpu.icache.demandMshrMissLatency::total     42274000                       # number of demand (read+write) MSHR miss ticks (Tick)
system.cpu.icache.overallMshrMissLatency::cpu.inst     42274000                       # number of overall MSHR miss ticks (Tick)
system.cpu.icache.overallMshrMissLatency::total     42274000                       # number of overall MSHR miss ticks (Tick)
system.cpu.icache.demandMshrMissRate::cpu.inst     0.120945                       # mshr miss ratio for demand accesses (Ratio)
system.cpu.icache.demandMshrMissRate::total     0.120945                       # mshr miss ratio for demand accesses (Ratio)
system.cpu.icache.overallMshrMissRate::cpu.inst     0.120945                       # mshr miss ratio for overall accesses (Ratio)
system.cpu.icache.overallMshrMissRate::total     0.120945                       # mshr miss ratio for overall accesses (Ratio)
system.cpu.icache.demandAvgMshrMissLatency::cpu.inst 58148.555708                       # average overall mshr miss latency ((Cycle/Count))
system.cpu.icache.demandAvgMshrMissLatency::total 58148.555708                       # average overall mshr miss latency ((Cycle/Count))
system.cpu.icache.overallAvgMshrMissLatency::cpu.inst 58148.555708                       # average overall mshr miss latency ((Cycle/Count))
system.cpu.icache.overallAvgMshrMissLatency::total 58148.555708                       # average overall mshr miss latency ((Cycle/Count))
system.cpu.icache.replacements                     70                       # number of replacements (Count)
system.cpu.icache.ReadReq.hits::cpu.inst         5033                       # number of ReadReq hits (Count)
system.cpu.icache.ReadReq.hits::total            5033                       # number of ReadReq hits (Count)
system.cpu.icache.ReadReq.misses::cpu.inst          978                       # number of ReadReq misses (Count)
system.cpu.icache.ReadReq.misses::total           978                       # number of ReadReq misses (Count)
system.cpu.icache.ReadReq.missLatency::cpu.inst     53922000                       # number of ReadReq miss ticks (Tick)
system.cpu.icache.ReadReq.missLatency::total     53922000                       # number of ReadReq miss ticks (Tick)
system.cpu.icache.ReadReq.accesses::cpu.inst         6011                       # number of ReadReq accesses(hits+misses) (Count)
system.cpu.icache.ReadReq.accesses::total         6011                       # number of ReadReq accesses(hits+misses) (Count)
system.cpu.icache.ReadReq.missRate::cpu.inst     0.162702                       # miss rate for ReadReq accesses (Ratio)
system.cpu.icache.ReadReq.missRate::total     0.162702                       # miss rate for ReadReq accesses (Ratio)
system.cpu.icache.ReadReq.avgMissLatency::cpu.inst 55134.969325                       # average ReadReq miss latency ((Tick/Count))
system.cpu.icache.ReadReq.avgMissLatency::total 55134.969325                       # average ReadReq miss latency ((Tick/Count))
system.cpu.icache.ReadReq.mshrHits::cpu.inst          251                       # number of ReadReq MSHR hits (Count)
system.cpu.icache.ReadReq.mshrHits::total          251                       # number of ReadReq MSHR hits (Count)
system.cpu.icache.ReadReq.mshrMisses::cpu.inst          727                       # number of ReadReq MSHR misses (Count)
system.cpu.icache.ReadReq.mshrMisses::total          727                       # number of ReadReq MSHR misses (Count)
system.cpu.icache.ReadReq.mshrMissLatency::cpu.inst     42274000                       # number of ReadReq MSHR miss ticks (Tick)
system.cpu.icache.ReadReq.mshrMissLatency::total     42274000                       # number of ReadReq MSHR miss ticks (Tick)
system.cpu.icache.ReadReq.mshrMissRate::cpu.inst     0.120945                       # mshr miss rate for ReadReq accesses (Ratio)
system.cpu.icache.ReadReq.mshrMissRate::total     0.120945                       # mshr miss rate for ReadReq accesses (Ratio)
system.cpu.icache.ReadReq.avgMshrMissLatency::cpu.inst 58148.555708                       # average ReadReq mshr miss latency ((Tick/Count))
system.cpu.icache.ReadReq.avgMshrMissLatency::total 58148.555708                       # average ReadReq mshr miss latency ((Tick/Count))
system.cpu.icache.power_state.pwrStateResidencyTicks::UNDEFINED     59529000                       # Cumulative time (in ticks) in various power states (Tick)
system.cpu.icache.tags.tagsInUse           384.199840                       # Average ticks per tags in use ((Tick/Count))
system.cpu.icache.tags.totalRefs                 5760                       # Total number of references to valid blocks. (Count)
system.cpu.icache.tags.sampledRefs                727                       # Sample count of references to valid blocks. (Count)
system.cpu.icache.tags.avgRefs               7.922971                       # Average number of references to valid blocks. ((Count/Count))
system.cpu.icache.tags.warmupTick               77000                       # The tick when the warmup percentage was hit. (Tick)
system.cpu.icache.tags.occupancies::cpu.inst   384.199840                       # Average occupied blocks per tick, per requestor ((Count/Tick))
system.cpu.icache.tags.avgOccs::cpu.inst     0.375195                       # Average percentage of cache occupancy ((Ratio/Tick))
system.cpu.icache.tags.avgOccs::total        0.375195                       # Average percentage of cache occupancy ((Ratio/Tick))
system.cpu.icache.tags.occupanciesTaskId::1024          657                       # Occupied blocks per task id (Count)
system.cpu.icache.tags.ageTaskId_1024::0           63                       # Occupied blocks per task id, per block age (Count)
system.cpu.icache.tags.ageTaskId_1024::1          594                       # Occupied blocks per task id, per block age (Count)
system.cpu.icache.tags.ratioOccsTaskId::1024     0.641602                       # Ratio of occupied blocks and all blocks, per task id (Ratio)
system.cpu.icache.tags.tagAccesses              12749                       # Number of tag accesses (Count)
system.cpu.icache.tags.dataAccesses             12749                       # Number of data accesses (Count)
system.cpu.icache.tags.power_state.pwrStateResidencyTicks::UNDEFINED     59529000                       # Cumulative time (in ticks) in various power states (Tick)
system.cpu.iew.idleCycles                           0                       # Number of cycles IEW is idle (Cycle)
system.cpu.iew.squashCycles                       987                       # Number of cycles IEW is squashing (Cycle)
system.cpu.iew.blockCycles                       5637                       # Number of cycles IEW is blocking (Cycle)
system.cpu.iew.unblockCycles                      726                       # Number of cycles IEW is unblocking (Cycle)
system.cpu.iew.dispatchedInsts                  71214                       # Number of instructions dispatched to IQ (Count)
system.cpu.iew.dispSquashedInsts                  148                       # Number of squashed instructions skipped by dispatch (Count)
system.cpu.iew.dispLoadInsts                     8543                       # Number of dispatched load instructions (Count)
system.cpu.iew.dispStoreInsts                    4431                       # Number of dispatched store instructions (Count)
system.cpu.iew.dispNonSpecInsts                     1                       # Number of dispatched non-speculative instructions (Count)
system.cpu.iew.iqFullEvents                        81                       # Number of times the IQ has become full, causing a stall (Count)
system.cpu.iew.lsqFullEvents                      597                       # Number of times the LSQ has become full, causing a stall (Count)
system.cpu.iew.memOrderViolationEvents             45                       # Number of memory order violations (Count)
system.cpu.iew.predictedTakenIncorrect            160                       # Number of branches that were predicted taken incorrectly (Count)
system.cpu.iew.predictedNotTakenIncorrect          966                       # Number of branches that were predicted not taken incorrectly (Count)
system.cpu.iew.branchMispredicts                 1126                       # Number of branch mispredicts detected at execute (Count)
system.cpu.iew.instsToCommit                    59483                       # Cumulative count of insts sent to commit (Count)
system.cpu.iew.writebackCount                   59059                       # Cumulative count of insts written-back (Count)
system.cpu.iew.producerInst                     42659                       # Number of instructions producing a value (Count)
system.cpu.iew.consumerInst                     70717                       # Number of instructions consuming a value (Count)
system.cpu.iew.wbRate                        0.992088                       # Insts written-back per cycle ((Count/Cycle))
system.cpu.iew.wbFanout                      0.603235                       # Average fanout of values written-back ((Count/Count))
system.cpu.interrupts.clk_domain.clock          16000                       # Clock period in ticks (Tick)
system.cpu.itb_walker_cache.blockedCycles::no_mshrs            0                       # number of cycles access was blocked (Cycle)
system.cpu.itb_walker_cache.blockedCycles::no_targets            0                       # number of cycles access was blocked (Cycle)
system.cpu.itb_walker_cache.blockedCauses::no_mshrs            0                       # number of times access was blocked (Count)
system.cpu.itb_walker_cache.blockedCauses::no_targets            0                       # number of times access was blocked (Count)
system.cpu.itb_walker_cache.avgBlocked::no_mshrs          nan                       # average number of cycles each access was blocked ((Cycle/Count))
system.cpu.itb_walker_cache.avgBlocked::no_targets          nan                       # average number of cycles each access was blocked ((Cycle/Count))
system.cpu.itb_walker_cache.replacements            0                       # number of replacements (Count)
system.cpu.itb_walker_cache.power_state.pwrStateResidencyTicks::UNDEFINED     59529000                       # Cumulative time (in ticks) in various power states (Tick)
system.cpu.itb_walker_cache.tags.tagsInUse            0                       # Average ticks per tags in use ((Tick/Count))
system.cpu.itb_walker_cache.tags.totalRefs            0                       # Total number of references to valid blocks. (Count)
system.cpu.itb_walker_cache.tags.sampledRefs            0                       # Sample count of references to valid blocks. (Count)
system.cpu.itb_walker_cache.tags.avgRefs          nan                       # Average number of references to valid blocks. ((Count/Count))
system.cpu.itb_walker_cache.tags.warmupTick            0                       # The tick when the warmup percentage was hit. (Tick)
system.cpu.itb_walker_cache.tags.tagAccesses            0                       # Number of tag accesses (Count)
system.cpu.itb_walker_cache.tags.dataAccesses            0                       # Number of data accesses (Count)
system.cpu.itb_walker_cache.tags.power_state.pwrStateResidencyTicks::UNDEFINED     59529000                       # Cumulative time (in ticks) in various power states (Tick)
system.cpu.lsq0.forwLoads                         342                       # Number of loads that had data forwarded from stores (Count)
system.cpu.lsq0.squashedLoads                    4112                       # Number of loads squashed (Count)
system.cpu.lsq0.ignoredResponses                    4                       # Number of memory responses ignored because the instruction is squashed (Count)
system.cpu.lsq0.memOrderViolation                  45                       # Number of memory ordering violations (Count)
system.cpu.lsq0.squashedStores                   1554                       # Number of stores squashed (Count)
system.cpu.lsq0.rescheduledLoads                    1                       # Number of loads that were rescheduled (Count)
system.cpu.lsq0.blockedByCache                     45                       # Number of times an access to memory failed due to the cache being blocked (Count)
system.cpu.lsq0.loadToUse::samples               4431                       # Distribution of cycle latency between the first time a load is issued and its completion (Unspecified)
system.cpu.lsq0.loadToUse::mean             12.362446                       # Distribution of cycle latency between the first time a load is issued and its completion (Unspecified)
system.cpu.lsq0.loadToUse::stdev            22.967255                       # Distribution of cycle latency between the first time a load is issued and its completion (Unspecified)
system.cpu.lsq0.loadToUse::0-9                   3693     83.34%     83.34% # Distribution of cycle latency between the first time a load is issued and its completion (Unspecified)
system.cpu.lsq0.loadToUse::10-19                   20      0.45%     83.80% # Distribution of cycle latency between the first time a load is issued and its completion (Unspecified)
system.cpu.lsq0.loadToUse::20-29                   14      0.32%     84.11% # Distribution of cycle latency between the first time a load is issued and its completion (Unspecified)
system.cpu.lsq0.loadToUse::30-39                   17      0.38%     84.50% # Distribution of cycle latency between the first time a load is issued and its completion (Unspecified)
system.cpu.lsq0.loadToUse::40-49                   83      1.87%     86.37% # Distribution of cycle latency between the first time a load is issued and its completion (Unspecified)
system.cpu.lsq0.loadToUse::50-59                  415      9.37%     95.73% # Distribution of cycle latency between the first time a load is issued and its completion (Unspecified)
system.cpu.lsq0.loadToUse::60-69                   90      2.03%     97.77% # Distribution of cycle latency between the first time a load is issued and its completion (Unspecified)
system.cpu.lsq0.loadToUse::70-79                   32      0.72%     98.49% # Distribution of cycle latency between the first time a load is issued and its completion (Unspecified)
system.cpu.lsq0.loadToUse::80-89                   56      1.26%     99.75% # Distribution of cycle latency between the first time a load is issued and its completion (Unspecified)
system.cpu.lsq0.loadToUse::90-99                    1      0.02%     99.77% # Distribution of cycle latency between the first time a load is issued and its completion (Unspecified)
system.cpu.lsq0.loadToUse::100-109                  2      0.05%     99.82% # Distribution of cycle latency between the first time a load is issued and its completion (Unspecified)
system.cpu.lsq0.loadToUse::110-119                  1      0.02%     99.84% # Distribution of cycle latency between the first time a load is issued and its completion (Unspecified)
system.cpu.lsq0.loadToUse::170-179                  1      0.02%     99.86% # Distribution of cycle latency between the first time a load is issued and its completion (Unspecified)
[...]
system.mem_ctrls.dram.bwWrite::total         10751063                       # Write bandwidth from this memory ((Byte/Second))
system.mem_ctrls.dram.bwTotal::writebacks     10751063                       # Total bandwidth to/from this memory ((Byte/Second))
system.mem_ctrls.dram.bwTotal::cpu.inst     781602244                       # Total bandwidth to/from this memory ((Byte/Second))
system.mem_ctrls.dram.bwTotal::cpu.data     568731207                       # Total bandwidth to/from this memory ((Byte/Second))
system.mem_ctrls.dram.bwTotal::total       1361084513                       # Total bandwidth to/from this memory ((Byte/Second))
system.mem_ctrls.dram.readBursts                 1252                       # Number of DRAM read bursts (Count)
system.mem_ctrls.dram.writeBursts                  50                       # Number of DRAM write bursts (Count)
system.mem_ctrls.dram.perBankRdBursts::0          149                       # Per bank write bursts (Count)
system.mem_ctrls.dram.perBankRdBursts::1           57                       # Per bank write bursts (Count)
system.mem_ctrls.dram.perBankRdBursts::2          133                       # Per bank write bursts (Count)
system.mem_ctrls.dram.perBankRdBursts::3           67                       # Per bank write bursts (Count)
system.mem_ctrls.dram.perBankRdBursts::4          142                       # Per bank write bursts (Count)
system.mem_ctrls.dram.perBankRdBursts::5          108                       # Per bank write bursts (Count)
system.mem_ctrls.dram.perBankRdBursts::6           50                       # Per bank write bursts (Count)
system.mem_ctrls.dram.perBankRdBursts::7           89                       # Per bank write bursts (Count)
system.mem_ctrls.dram.perBankRdBursts::8          120                       # Per bank write bursts (Count)
system.mem_ctrls.dram.perBankRdBursts::9           48                       # Per bank write bursts (Count)
system.mem_ctrls.dram.perBankRdBursts::10           85                       # Per bank write bursts (Count)
system.mem_ctrls.dram.perBankRdBursts::11           27                       # Per bank write bursts (Count)
system.mem_ctrls.dram.perBankRdBursts::12            3                       # Per bank write bursts (Count)
system.mem_ctrls.dram.perBankRdBursts::13           35                       # Per bank write bursts (Count)
system.mem_ctrls.dram.perBankRdBursts::14           59                       # Per bank write bursts (Count)
system.mem_ctrls.dram.perBankRdBursts::15           80                       # Per bank write bursts (Count)
system.mem_ctrls.dram.perBankWrBursts::0            9                       # Per bank write bursts (Count)
system.mem_ctrls.dram.perBankWrBursts::1            0                       # Per bank write bursts (Count)
system.mem_ctrls.dram.perBankWrBursts::2            0                       # Per bank write bursts (Count)
system.mem_ctrls.dram.perBankWrBursts::3            0                       # Per bank write bursts (Count)
system.mem_ctrls.dram.perBankWrBursts::4           15                       # Per bank write bursts (Count)
system.mem_ctrls.dram.perBankWrBursts::5            0                       # Per bank write bursts (Count)
system.mem_ctrls.dram.perBankWrBursts::6            7                       # Per bank write bursts (Count)
system.mem_ctrls.dram.perBankWrBursts::7            0                       # Per bank write bursts (Count)
system.mem_ctrls.dram.perBankWrBursts::8            0                       # Per bank write bursts (Count)
system.mem_ctrls.dram.perBankWrBursts::9            5                       # Per bank write bursts (Count)
system.mem_ctrls.dram.perBankWrBursts::10            0                       # Per bank write bursts (Count)
system.mem_ctrls.dram.perBankWrBursts::11            0                       # Per bank write bursts (Count)
system.mem_ctrls.dram.perBankWrBursts::12            0                       # Per bank write bursts (Count)
system.mem_ctrls.dram.perBankWrBursts::13            0                       # Per bank write bursts (Count)
system.mem_ctrls.dram.perBankWrBursts::14            7                       # Per bank write bursts (Count)
system.mem_ctrls.dram.perBankWrBursts::15            7                       # Per bank write bursts (Count)
system.mem_ctrls.dram.totQLat                10278750                       # Total ticks spent queuing (Tick)
system.mem_ctrls.dram.totBusLat               6260000                       # Total ticks spent in databus transfers (Tick)
system.mem_ctrls.dram.totMemAccLat           33753750                       # Total ticks spent from burst creation until serviced by the DRAM (Tick)
system.mem_ctrls.dram.avgQLat                 8209.86                       # Average queueing delay per DRAM burst ((Tick/Count))
system.mem_ctrls.dram.avgBusLat               5000.00                       # Average bus latency per DRAM burst ((Tick/Count))
system.mem_ctrls.dram.avgMemAccLat           26959.86                       # Average memory access latency per DRAM burst ((Tick/Count))
system.mem_ctrls.dram.readRowHits                1025                       # Number of row buffer hits during reads (Count)
system.mem_ctrls.dram.writeRowHits                 41                       # Number of row buffer hits during writes (Count)
system.mem_ctrls.dram.readRowHitRate            81.87                       # Row buffer hit rate for reads (Ratio)
system.mem_ctrls.dram.writeRowHitRate           82.00                       # Row buffer hit rate for writes (Ratio)
system.mem_ctrls.dram.bytesPerActivate::samples          228                       # Bytes accessed per row activation (Byte)
system.mem_ctrls.dram.bytesPerActivate::mean   358.175439                       # Bytes accessed per row activation (Byte)
system.mem_ctrls.dram.bytesPerActivate::gmean   214.267304                       # Bytes accessed per row activation (Byte)
system.mem_ctrls.dram.bytesPerActivate::stdev   346.214424                       # Bytes accessed per row activation (Byte)
system.mem_ctrls.dram.bytesPerActivate::0-127           73     32.02%     32.02% # Bytes accessed per row activation (Byte)
system.mem_ctrls.dram.bytesPerActivate::128-255           49     21.49%     53.51% # Bytes accessed per row activation (Byte)
system.mem_ctrls.dram.bytesPerActivate::256-383           23     10.09%     63.60% # Bytes accessed per row activation (Byte)
system.mem_ctrls.dram.bytesPerActivate::384-511           15      6.58%     70.18% # Bytes accessed per row activation (Byte)
system.mem_ctrls.dram.bytesPerActivate::512-639           13      5.70%     75.88% # Bytes accessed per row activation (Byte)
system.mem_ctrls.dram.bytesPerActivate::640-767           12      5.26%     81.14% # Bytes accessed per row activation (Byte)
system.mem_ctrls.dram.bytesPerActivate::768-895            6      2.63%     83.77% # Bytes accessed per row activation (Byte)
system.mem_ctrls.dram.bytesPerActivate::896-1023            4      1.75%     85.53% # Bytes accessed per row activation (Byte)
system.mem_ctrls.dram.bytesPerActivate::1024-1151           33     14.47%    100.00% # Bytes accessed per row activation (Byte)
system.mem_ctrls.dram.bytesPerActivate::total          228                       # Bytes accessed per row activation (Byte)
system.mem_ctrls.dram.bytesRead                 80128                       # Total bytes read (Byte)
system.mem_ctrls.dram.bytesWritten               3200                       # Total bytes written (Byte)
system.mem_ctrls.dram.avgRdBW             1346.033026                       # Average DRAM read bandwidth in MiBytes/s ((Byte/Second))
system.mem_ctrls.dram.avgWrBW               53.755313                       # Average DRAM write bandwidth in MiBytes/s ((Byte/Second))
system.mem_ctrls.dram.peakBW                 12800.00                       # Theoretical peak bandwidth in MiByte/s ((Byte/Second))
system.mem_ctrls.dram.busUtil                   10.94                       # Data bus utilization in percentage (Ratio)
system.mem_ctrls.dram.busUtilRead               10.52                       # Data bus utilization in percentage for reads (Ratio)
system.mem_ctrls.dram.busUtilWrite               0.42                       # Data bus utilization in percentage for writes (Ratio)
system.mem_ctrls.dram.pageHitRate               81.87                       # Row buffer hit rate, read and write combined (Ratio)
system.mem_ctrls.dram.power_state.pwrStateResidencyTicks::UNDEFINED     59529000                       # Cumulative time (in ticks) in various power states (Tick)
system.mem_ctrls.dram.rank0.actEnergy         1056720                       # Energy for activate commands per rank (pJ) (Joule)
system.mem_ctrls.dram.rank0.preEnergy          550275                       # Energy for precharge commands per rank (pJ) (Joule)
system.mem_ctrls.dram.rank0.readEnergy        5676300                       # Energy for read commands per rank (pJ) (Joule)
system.mem_ctrls.dram.rank0.writeEnergy        161820                       # Energy for write commands per rank (pJ) (Joule)
system.mem_ctrls.dram.rank0.refreshEnergy 4302480.000000                       # Energy for refresh commands per rank (pJ) (Joule)
system.mem_ctrls.dram.rank0.actBackEnergy     25322250                       # Energy for active background per rank (pJ) (Joule)
system.mem_ctrls.dram.rank0.preBackEnergy      1535520                       # Energy for precharge background per rank (pJ) (Joule)
system.mem_ctrls.dram.rank0.actPowerDownEnergy            0                       # Energy for active power-down per rank (pJ) (Joule)
system.mem_ctrls.dram.rank0.prePowerDownEnergy            0                       # Energy for precharge power-down per rank (pJ) (Joule)
system.mem_ctrls.dram.rank0.selfRefreshEnergy            0                       # Energy for self refresh per rank (pJ) (Joule)
system.mem_ctrls.dram.rank0.totalEnergy      38605365                       # Total energy per rank (pJ) (Joule)
system.mem_ctrls.dram.rank0.averagePower   648.513582                       # Core power per rank (mW) (Watt)
system.mem_ctrls.dram.rank0.totalIdleTime            0                       # Total Idle time Per DRAM Rank (Tick)
system.mem_ctrls.dram.rank0.pwrStateTime::IDLE      3803750                       # Time in different power states (Tick)
system.mem_ctrls.dram.rank0.pwrStateTime::REF      1820000                       # Time in different power states (Tick)
system.mem_ctrls.dram.rank0.pwrStateTime::SREF            0                       # Time in different power states (Tick)
system.mem_ctrls.dram.rank0.pwrStateTime::PRE_PDN            0                       # Time in different power states (Tick)
system.mem_ctrls.dram.rank0.pwrStateTime::ACT     53905250                       # Time in different power states (Tick)
system.mem_ctrls.dram.rank0.pwrStateTime::ACT_PDN            0                       # Time in different power states (Tick)
system.mem_ctrls.dram.rank1.actEnergy          628320                       # Energy for activate commands per rank (pJ) (Joule)
system.mem_ctrls.dram.rank1.preEnergy          314985                       # Energy for precharge commands per rank (pJ) (Joule)
system.mem_ctrls.dram.rank1.readEnergy        3262980                       # Energy for read commands per rank (pJ) (Joule)
system.mem_ctrls.dram.rank1.writeEnergy         99180                       # Energy for write commands per rank (pJ) (Joule)
system.mem_ctrls.dram.rank1.refreshEnergy 4302480.000000                       # Energy for refresh commands per rank (pJ) (Joule)
system.mem_ctrls.dram.rank1.actBackEnergy     26791710                       # Energy for active background per rank (pJ) (Joule)
system.mem_ctrls.dram.rank1.preBackEnergy       298080                       # Energy for precharge background per rank (pJ) (Joule)
system.mem_ctrls.dram.rank1.actPowerDownEnergy            0                       # Energy for active power-down per rank (pJ) (Joule)
system.mem_ctrls.dram.rank1.prePowerDownEnergy            0                       # Energy for precharge power-down per rank (pJ) (Joule)
system.mem_ctrls.dram.rank1.selfRefreshEnergy            0                       # Energy for self refresh per rank (pJ) (Joule)
system.mem_ctrls.dram.rank1.totalEnergy      35697735                       # Total energy per rank (pJ) (Joule)
system.mem_ctrls.dram.rank1.averagePower   599.669657                       # Core power per rank (mW) (Watt)
system.mem_ctrls.dram.rank1.totalIdleTime            0                       # Total Idle time Per DRAM Rank (Tick)
system.mem_ctrls.dram.rank1.pwrStateTime::IDLE       335750                       # Time in different power states (Tick)
system.mem_ctrls.dram.rank1.pwrStateTime::REF      1820000                       # Time in different power states (Tick)
system.mem_ctrls.dram.rank1.pwrStateTime::SREF            0                       # Time in different power states (Tick)
system.mem_ctrls.dram.rank1.pwrStateTime::PRE_PDN            0                       # Time in different power states (Tick)
system.mem_ctrls.dram.rank1.pwrStateTime::ACT     57373250                       # Time in different power states (Tick)
system.mem_ctrls.dram.rank1.pwrStateTime::ACT_PDN            0                       # Time in different power states (Tick)
system.mem_ctrls.power_state.pwrStateResidencyTicks::UNDEFINED     59529000                       # Cumulative time (in ticks) in various power states (Tick)
system.membus.transDist::ReadResp                1008                       # Transaction distribution (Count)
system.membus.transDist::WritebackDirty            10                       # Transaction distribution (Count)
system.membus.transDist::WritebackClean            70                       # Transaction distribution (Count)
system.membus.transDist::CleanEvict                27                       # Transaction distribution (Count)
system.membus.transDist::ReadExReq                248                       # Transaction distribution (Count)
system.membus.transDist::ReadExResp               248                       # Transaction distribution (Count)
system.membus.transDist::ReadCleanReq             727                       # Transaction distribution (Count)
system.membus.transDist::ReadSharedReq            281                       # Transaction distribution (Count)
system.membus.pktCount_system.cpu.icache.mem_side_port::system.mem_ctrls.port         1524                       # Packet count per connected requestor and responder (Count)
system.membus.pktCount_system.cpu.icache.mem_side_port::total         1524                       # Packet count per connected requestor and responder (Count)
system.membus.pktCount_system.cpu.dcache.mem_side_port::system.mem_ctrls.port         1095                       # Packet count per connected requestor and responder (Count)
system.membus.pktCount_system.cpu.dcache.mem_side_port::total         1095                       # Packet count per connected requestor and responder (Count)
system.membus.pktCount::total                    2619                       # Packet count per connected requestor and responder (Count)
system.membus.pktSize_system.cpu.icache.mem_side_port::system.mem_ctrls.port        51008                       # Cumulative packet size per connected requestor and responder (Byte)
system.membus.pktSize_system.cpu.icache.mem_side_port::total        51008                       # Cumulative packet size per connected requestor and responder (Byte)
system.membus.pktSize_system.cpu.dcache.mem_side_port::system.mem_ctrls.port        34496                       # Cumulative packet size per connected requestor and responder (Byte)
system.membus.pktSize_system.cpu.dcache.mem_side_port::total        34496                       # Cumulative packet size per connected requestor and responder (Byte)
system.membus.pktSize::total                    85504                       # Cumulative packet size per connected requestor and responder (Byte)
system.membus.snoops                                0                       # Total snoops (Count)
system.membus.snoopTraffic                          0                       # Total snoop traffic (Byte)
system.membus.snoopFanout::samples               1256                       # Request fanout histogram (Count)
system.membus.snoopFanout::mean              0.000796                       # Request fanout histogram (Count)
system.membus.snoopFanout::stdev             0.028217                       # Request fanout histogram (Count)
system.membus.snoopFanout::underflows               0      0.00%      0.00% # Request fanout histogram (Count)
system.membus.snoopFanout::0                     1255     99.92%     99.92% # Request fanout histogram (Count)
system.membus.snoopFanout::1                        1      0.08%    100.00% # Request fanout histogram (Count)
system.membus.snoopFanout::2                        0      0.00%    100.00% # Request fanout histogram (Count)
system.membus.snoopFanout::3                        0      0.00%    100.00% # Request fanout histogram (Count)
system.membus.snoopFanout::4                        0      0.00%    100.00% # Request fanout histogram (Count)
system.membus.snoopFanout::overflows                0      0.00%    100.00% # Request fanout histogram (Count)
system.membus.snoopFanout::min_value                0                       # Request fanout histogram (Count)
system.membus.snoopFanout::max_value                1                       # Request fanout histogram (Count)
system.membus.snoopFanout::total                 1256                       # Request fanout histogram (Count)
system.membus.power_state.pwrStateResidencyTicks::UNDEFINED     59529000                       # Cumulative time (in ticks) in various power states (Tick)
system.membus.reqLayer2.occupancy             1683000                       # Layer occupancy (ticks) (Tick)
system.membus.reqLayer2.utilization               0.0                       # Layer utilization (Ratio)
system.membus.respLayer1.occupancy            3849250                       # Layer occupancy (ticks) (Tick)
system.membus.respLayer1.utilization              0.1                       # Layer utilization (Ratio)
system.membus.respLayer2.occupancy            2817500                       # Layer occupancy (ticks) (Tick)
system.membus.respLayer2.utilization              0.0                       # Layer utilization (Ratio)
system.membus.snoop_filter.totRequests           1363                       # Total number of requests made to the snoop filter. (Count)
system.membus.snoop_filter.hitSingleRequests          108                       # Number of requests hitting in the snoop filter with a single holder of the requested data. (Count)
system.membus.snoop_filter.hitMultiRequests            0                       # Number of requests hitting in the snoop filter with multiple (>1) holders of the requested data. (Count)
system.membus.snoop_filter.totSnoops                0                       # Total number of snoops made to the snoop filter. (Count)
system.membus.snoop_filter.hitSingleSnoops            0                       # Number of snoops hitting in the snoop filter with a single holder of the requested data. (Count)
system.membus.snoop_filter.hitMultiSnoops            0                       # Number of snoops hitting in the snoop filter with multiple (>1) holders of the requested data. (Count)
system.voltage_domain.voltage                       1                       # Voltage in Volts (Volt)
system.workload.inst.arm                            0                       # number of arm instructions executed (Count)
system.workload.inst.quiesce                        0                       # number of quiesce instructions executed (Count)

---------- End Simulation Statistics   ----------
