
---------- Begin Simulation Statistics ----------
simSeconds                                   0.029736                       # Number of seconds simulated (Second)
simTicks                                  29735562000                       # Number of ticks simulated (Tick)
finalTick                                 29735562000                       # Number of ticks from beginning of simulation (restored from checkpoints and never reset) (Tick)
simFreq                                  1000000000000                       # The number of ticks per simulated second ((Tick/Second))
hostSeconds                                     95.67                       # Real time elapsed on the host (Second)
hostTickRate                                310823333                       # The number of ticks simulated per host second (ticks/s) ((Tick/Second))
hostMemory                                     695600                       # Number of bytes of host memory used (Byte)
simInsts                                     11530709                       # Number of instructions simulated (Count)
simOps                                       22868791                       # Number of ops (including micro ops) simulated (Count)
hostInstRate                                   120529                       # Simulator instruction rate (inst/s) ((Count/Second))
hostOpRate                                     239045                       # Simulator op (including micro ops) rate (op/s) ((Count/Second))
system.clk_domain.clock                          1000                       # Clock period in ticks (Tick)
system.cpu.numCycles                         29735563                       # Number of cpu cycles simulated (Cycle)
system.cpu.numWorkItemsStarted                      0                       # Number of work items this cpu started (Count)
system.cpu.numWorkItemsCompleted                    0                       # Number of work items this cpu completed (Count)
system.cpu.instsAdded                        23135889                       # Number of instructions added to the IQ (excludes non-spec) (Count)
system.cpu.nonSpecInstsAdded                       74                       # Number of non-speculative instructions added to the IQ (Count)
system.cpu.instsIssued                       33497357                       # Number of instructions issued (Count)
system.cpu.squashedInstsIssued                  21255                       # Number of squashed instructions issued (Count)
system.cpu.squashedInstsExamined               267166                       # Number of squashed instructions iterated over during squash; mainly for profiling (Count)
system.cpu.squashedOperandsExamined            481006                       # Number of squashed operands that are examined and possibly removed from graph (Count)
system.cpu.squashedNonSpecRemoved                  74                       # Number of squashed non-spec instructions that were removed (Count)
system.cpu.numIssuedDist::samples            29726203                       # Number of insts issued each cycle (Count)
system.cpu.numIssuedDist::mean               1.126863                       # Number of insts issued each cycle (Count)
system.cpu.numIssuedDist::stdev              1.872455                       # Number of insts issued each cycle (Count)
system.cpu.numIssuedDist::underflows                0      0.00%      0.00% # Number of insts issued each cycle (Count)
system.cpu.numIssuedDist::0                  19079583     64.18%     64.18% # Number of insts issued each cycle (Count)
system.cpu.numIssuedDist::1                   3172153     10.67%     74.86% # Number of insts issued each cycle (Count)
system.cpu.numIssuedDist::2                   1079968      3.63%     78.49% # Number of insts issued each cycle (Count)
system.cpu.numIssuedDist::3                   1668653      5.61%     84.10% # Number of insts issued each cycle (Count)
system.cpu.numIssuedDist::4                   2275177      7.65%     91.76% # Number of insts issued each cycle (Count)
system.cpu.numIssuedDist::5                   1391748      4.68%     96.44% # Number of insts issued each cycle (Count)
system.cpu.numIssuedDist::6                    532409      1.79%     98.23% # Number of insts issued each cycle (Count)
system.cpu.numIssuedDist::7                    306689      1.03%     99.26% # Number of insts issued each cycle (Count)
system.cpu.numIssuedDist::8                    219823      0.74%    100.00% # Number of insts issued each cycle (Count)
system.cpu.numIssuedDist::overflows                 0      0.00%    100.00% # Number of insts issued each cycle (Count)
system.cpu.numIssuedDist::min_value                 0                       # Number of insts issued each cycle (Count)
system.cpu.numIssuedDist::max_value                 8                       # Number of insts issued each cycle (Count)
system.cpu.numIssuedDist::total              29726203                       # Number of insts issued each cycle (Count)
system.cpu.statFuBusy::No_OpClass                   0      0.00%      0.00% # attempts to use FU when none available (Count)
system.cpu.statFuBusy::IntAlu                   80941      2.10%      2.10% # attempts to use FU when none available (Count)
system.cpu.statFuBusy::IntMult                      0      0.00%      2.10% # attempts to use FU when none available (Count)
system.cpu.statFuBusy::IntDiv                       0      0.00%      2.10% # attempts to use FU when none available (Count)
system.cpu.statFuBusy::FloatAdd                     0      0.00%      2.10% # attempts to use FU when none available (Count)
system.cpu.statFuBusy::FloatCmp                     0      0.00%      2.10% # attempts to use FU when none available (Count)
system.cpu.statFuBusy::FloatCvt                     0      0.00%      2.10% # attempts to use FU when none available (Count)
system.cpu.statFuBusy::FloatMult                    0      0.00%      2.10% # attempts to use FU when none available (Count)
system.cpu.statFuBusy::FloatMultAcc                 0      0.00%      2.10% # attempts to use FU when none available (Count)
system.cpu.statFuBusy::FloatDiv                     0      0.00%      2.10% # attempts to use FU when none available (Count)
system.cpu.statFuBusy::FloatMisc                    0      0.00%      2.10% # attempts to use FU when none available (Count)
system.cpu.statFuBusy::FloatSqrt                    0      0.00%      2.10% # attempts to use FU when none available (Count)
system.cpu.statFuBusy::SimdAdd                      0      0.00%      2.10% # attempts to use FU when none available (Count)
system.cpu.statFuBusy::SimdAddAcc                   0      0.00%      2.10% # attempts to use FU when none available (Count)
system.cpu.statFuBusy::SimdAlu                     13      0.00%      2.10% # attempts to use FU when none available (Count)
system.cpu.statFuBusy::SimdCmp                      0      0.00%      2.10% # attempts to use FU when none available (Count)
system.cpu.statFuBusy::SimdCvt                      1      0.00%      2.10% # attempts to use FU when none available (Count)
system.cpu.statFuBusy::SimdMisc                     2      0.00%      2.10% # attempts to use FU when none available (Count)
system.cpu.statFuBusy::SimdMult                     0      0.00%      2.10% # attempts to use FU when none available (Count)
system.cpu.statFuBusy::SimdMultAcc                  0      0.00%      2.10% # attempts to use FU when none available (Count)
system.cpu.statFuBusy::SimdShift                    0      0.00%      2.10% # attempts to use FU when none available (Count)
system.cpu.statFuBusy::SimdShiftAcc                 0      0.00%      2.10% # attempts to use FU when none available (Count)
system.cpu.statFuBusy::SimdDiv                      0      0.00%      2.10% # attempts to use FU when none available (Count)
system.cpu.statFuBusy::SimdSqrt                     0      0.00%      2.10% # attempts to use FU when none available (Count)
system.cpu.statFuBusy::SimdFloatAdd                 0      0.00%      2.10% # attempts to use FU when none available (Count)
system.cpu.statFuBusy::SimdFloatAlu                 0      0.00%      2.10% # attempts to use FU when none available (Count)
system.cpu.statFuBusy::SimdFloatCmp                 0      0.00%      2.10% # attempts to use FU when none available (Count)
system.cpu.statFuBusy::SimdFloatCvt                 0      0.00%      2.10% # attempts to use FU when none available (Count)
system.cpu.statFuBusy::SimdFloatDiv                 0      0.00%      2.10% # attempts to use FU when none available (Count)
system.cpu.statFuBusy::SimdFloatMisc                0      0.00%      2.10% # attempts to use FU when none available (Count)
system.cpu.statFuBusy::SimdFloatMult               43      0.00%      2.10% # attempts to use FU when none available (Count)
system.cpu.statFuBusy::SimdFloatMultAcc             0      0.00%      2.10% # attempts to use FU when none available (Count)
system.cpu.statFuBusy::SimdFloatSqrt                0      0.00%      2.10% # attempts to use FU when none available (Count)
system.cpu.statFuBusy::SimdReduceAdd                0      0.00%      2.10% # attempts to use FU when none available (Count)
system.cpu.statFuBusy::SimdReduceAlu                0      0.00%      2.10% # attempts to use FU when none available (Count)
system.cpu.statFuBusy::SimdReduceCmp                0      0.00%      2.10% # attempts to use FU when none available (Count)
system.cpu.statFuBusy::SimdFloatReduceAdd            0      0.00%      2.10% # attempts to use FU when none available (Count)
system.cpu.statFuBusy::SimdFloatReduceCmp            0      0.00%      2.10% # attempts to use FU when none available (Count)
system.cpu.statFuBusy::SimdAes                      0      0.00%      2.10% # attempts to use FU when none available (Count)
system.cpu.statFuBusy::SimdAesMix                   0      0.00%      2.10% # attempts to use FU when none available (Count)
system.cpu.statFuBusy::SimdSha1Hash                 0      0.00%      2.10% # attempts to use FU when none available (Count)
system.cpu.statFuBusy::SimdSha1Hash2                0      0.00%      2.10% # attempts to use FU when none available (Count)
system.cpu.statFuBusy::SimdSha256Hash               0      0.00%      2.10% # attempts to use FU when none available (Count)
system.cpu.statFuBusy::SimdSha256Hash2              0      0.00%      2.10% # attempts to use FU when none available (Count)
system.cpu.statFuBusy::SimdShaSigma2                0      0.00%      2.10% # attempts to use FU when none available (Count)
system.cpu.statFuBusy::SimdShaSigma3                0      0.00%      2.10% # attempts to use FU when none available (Count)
system.cpu.statFuBusy::SimdPredAlu                  0      0.00%      2.10% # attempts to use FU when none available (Count)
system.cpu.statFuBusy::MemRead                1737132     45.08%     47.18% # attempts to use FU when none available (Count)
system.cpu.statFuBusy::MemWrite                     2      0.00%     47.18% # attempts to use FU when none available (Count)
system.cpu.statFuBusy::FloatMemRead           2035123     52.82%    100.00% # attempts to use FU when none available (Count)
system.cpu.statFuBusy::FloatMemWrite               15      0.00%    100.00% # attempts to use FU when none available (Count)
system.cpu.statFuBusy::IprAccess                    0      0.00%    100.00% # attempts to use FU when none available (Count)
system.cpu.statFuBusy::InstPrefetch                 0      0.00%    100.00% # attempts to use FU when none available (Count)
system.cpu.statIssuedInstType_0::No_OpClass          156      0.00%      0.00% # Number of instructions issued per FU type, per thread (Count)
system.cpu.statIssuedInstType_0::IntAlu      11711746     34.96%     34.96% # Number of instructions issued per FU type, per thread (Count)
system.cpu.statIssuedInstType_0::IntMult            4      0.00%     34.96% # Number of instructions issued per FU type, per thread (Count)
system.cpu.statIssuedInstType_0::IntDiv            18      0.00%     34.96% # Number of instructions issued per FU type, per thread (Count)
system.cpu.statIssuedInstType_0::FloatAdd      3202529      9.56%     44.52% # Number of instructions issued per FU type, per thread (Count)
system.cpu.statIssuedInstType_0::FloatCmp            0      0.00%     44.52% # Number of instructions issued per FU type, per thread (Count)
system.cpu.statIssuedInstType_0::FloatCvt            0      0.00%     44.52% # Number of instructions issued per FU type, per thread (Count)
system.cpu.statIssuedInstType_0::FloatMult            0      0.00%     44.52% # Number of instructions issued per FU type, per thread (Count)
system.cpu.statIssuedInstType_0::FloatMultAcc            0      0.00%     44.52% # Number of instructions issued per FU type, per thread (Count)
system.cpu.statIssuedInstType_0::FloatDiv            0      0.00%     44.52% # Number of instructions issued per FU type, per thread (Count)
system.cpu.statIssuedInstType_0::FloatMisc            0      0.00%     44.52% # Number of instructions issued per FU type, per thread (Count)
system.cpu.statIssuedInstType_0::FloatSqrt            0      0.00%     44.52% # Number of instructions issued per FU type, per thread (Count)
system.cpu.statIssuedInstType_0::SimdAdd          378      0.00%     44.53% # Number of instructions issued per FU type, per thread (Count)
system.cpu.statIssuedInstType_0::SimdAddAcc            0      0.00%     44.53% # Number of instructions issued per FU type, per thread (Count)
system.cpu.statIssuedInstType_0::SimdAlu        49948      0.15%     44.67% # Number of instructions issued per FU type, per thread (Count)
system.cpu.statIssuedInstType_0::SimdCmp            0      0.00%     44.67% # Number of instructions issued per FU type, per thread (Count)
system.cpu.statIssuedInstType_0::SimdCvt          111      0.00%     44.67% # Number of instructions issued per FU type, per thread (Count)
system.cpu.statIssuedInstType_0::SimdMisc          212      0.00%     44.68% # Number of instructions issued per FU type, per thread (Count)
system.cpu.statIssuedInstType_0::SimdMult            0      0.00%     44.68% # Number of instructions issued per FU type, per thread (Count)
system.cpu.statIssuedInstType_0::SimdMultAcc            0      0.00%     44.68% # Number of instructions issued per FU type, per thread (Count)
system.cpu.statIssuedInstType_0::SimdShift          188      0.00%     44.68% # Number of instructions issued per FU type, per thread (Count)
system.cpu.statIssuedInstType_0::SimdShiftAcc            0      0.00%     44.68% # Number of instructions issued per FU type, per thread (Count)
system.cpu.statIssuedInstType_0::SimdDiv            0      0.00%     44.68% # Number of instructions issued per FU type, per thread (Count)
system.cpu.statIssuedInstType_0::SimdSqrt            0      0.00%     44.68% # Number of instructions issued per FU type, per thread (Count)
system.cpu.statIssuedInstType_0::SimdFloatAdd      1605012      4.79%     49.47% # Number of instructions issued per FU type, per thread (Count)
system.cpu.statIssuedInstType_0::SimdFloatAlu            0      0.00%     49.47% # Number of instructions issued per FU type, per thread (Count)
system.cpu.statIssuedInstType_0::SimdFloatCmp            0      0.00%     49.47% # Number of instructions issued per FU type, per thread (Count)
system.cpu.statIssuedInstType_0::SimdFloatCvt            0      0.00%     49.47% # Number of instructions issued per FU type, per thread (Count)
system.cpu.statIssuedInstType_0::SimdFloatDiv            0      0.00%     49.47% # Number of instructions issued per FU type, per thread (Count)
system.cpu.statIssuedInstType_0::SimdFloatMisc            0      0.00%     49.47% # Number of instructions issued per FU type, per thread (Count)
system.cpu.statIssuedInstType_0::SimdFloatMult      1580436      4.72%     54.19% # Number of instructions issued per FU type, per thread (Count)
system.cpu.statIssuedInstType_0::SimdFloatMultAcc            0      0.00%     54.19% # Number of instructions issued per FU type, per thread (Count)
system.cpu.statIssuedInstType_0::SimdFloatSqrt            0      0.00%     54.19% # Number of instructions issued per FU type, per thread (Count)
system.cpu.statIssuedInstType_0::SimdReduceAdd            0      0.00%     54.19% # Number of instructions issued per FU type, per thread (Count)
system.cpu.statIssuedInstType_0::SimdReduceAlu            0      0.00%     54.19% # Number of instructions issued per FU type, per thread (Count)
system.cpu.statIssuedInstType_0::SimdReduceCmp            0      0.00%     54.19% # Number of instructions issued per FU type, per thread (Count)
system.cpu.statIssuedInstType_0::SimdFloatReduceAdd            0      0.00%     54.19% # Number of instructions issued per FU type, per thread (Count)
system.cpu.statIssuedInstType_0::SimdFloatReduceCmp            0      0.00%     54.19% # Number of instructions issued per FU type, per thread (Count)
system.cpu.statIssuedInstType_0::SimdAes            0      0.00%     54.19% # Number of instructions issued per FU type, per thread (Count)
system.cpu.statIssuedInstType_0::SimdAesMix            0      0.00%     54.19% # Number of instructions issued per FU type, per thread (Count)
system.cpu.statIssuedInstType_0::SimdSha1Hash            0      0.00%     54.19% # Number of instructions issued per FU type, per thread (Count)
system.cpu.statIssuedInstType_0::SimdSha1Hash2            0      0.00%     54.19% # Number of instructions issued per FU type, per thread (Count)
system.cpu.statIssuedInstType_0::SimdSha256Hash            0      0.00%     54.19% # Number of instructions issued per FU type, per thread (Count)
system.cpu.statIssuedInstType_0::SimdSha256Hash2            0      0.00%     54.19% # Number of instructions issued per FU type, per thread (Count)
system.cpu.statIssuedInstType_0::SimdShaSigma2            0      0.00%     54.19% # Number of instructions issued per FU type, per thread (Count)
system.cpu.statIssuedInstType_0::SimdShaSigma3            0      0.00%     54.19% # Number of instructions issued per FU type, per thread (Count)
system.cpu.statIssuedInstType_0::SimdPredAlu            0      0.00%     54.19% # Number of instructions issued per FU type, per thread (Count)
system.cpu.statIssuedInstType_0::MemRead      5652931     16.88%     71.06% # Number of instructions issued per FU type, per thread (Count)
system.cpu.statIssuedInstType_0::MemWrite         1400      0.00%     71.07% # Number of instructions issued per FU type, per thread (Count)
system.cpu.statIssuedInstType_0::FloatMemRead      9667243     28.86%     99.93% # Number of instructions issued per FU type, per thread (Count)
system.cpu.statIssuedInstType_0::FloatMemWrite        25045      0.07%    100.00% # Number of instructions issued per FU type, per thread (Count)
system.cpu.statIssuedInstType_0::IprAccess            0      0.00%    100.00% # Number of instructions issued per FU type, per thread (Count)
system.cpu.statIssuedInstType_0::InstPrefetch            0      0.00%    100.00% # Number of instructions issued per FU type, per thread (Count)
system.cpu.statIssuedInstType_0::total       33497357                       # Number of instructions issued per FU type, per thread (Count)
system.cpu.issueRate                         1.126508                       # Inst issue rate ((Count/Cycle))
system.cpu.fuBusy                             3853272                       # FU busy when requested (Count)
system.cpu.fuBusyRate                        0.115032                       # FU busy rate (busy events/executed inst) ((Count/Count))
system.cpu.intInstQueueReads                 66288177                       # Number of integer instruction queue reads (Count)
system.cpu.intInstQueueWrites                13563839                       # Number of integer instruction queue writes (Count)
system.cpu.intInstQueueWakeupAccesses        13323593                       # Number of integer instruction queue wakeup accesses (Count)
system.cpu.fpInstQueueReads                  34307267                       # Number of floating instruction queue reads (Count)
system.cpu.fpInstQueueWrites                  9839297                       # Number of floating instruction queue writes (Count)
system.cpu.fpInstQueueWakeupAccesses          9641246                       # Number of floating instruction queue wakeup accesses (Count)
system.cpu.vecInstQueueReads                        0                       # Number of vector instruction queue reads (Count)
system.cpu.vecInstQueueWrites                       0                       # Number of vector instruction queue writes (Count)
system.cpu.vecInstQueueWakeupAccesses               0                       # Number of vector instruction queue wakeup accesses (Count)
system.cpu.intAluAccesses                    19183657                       # Number of integer alu accesses (Count)
system.cpu.fpAluAccesses                     18166816                       # Number of floating point alu accesses (Count)
system.cpu.vecAluAccesses                           0                       # Number of vector alu accesses (Count)
system.cpu.numInsts                          33459625                       # Number of executed instructions (Count)
system.cpu.numLoadInsts                      15311982                       # Number of load instructions executed (Count)
system.cpu.numSquashedInsts                     37732                       # Number of squashed instructions skipped in execute (Count)
system.cpu.numSwp                                   0                       # Number of swp insts executed (Count)
system.cpu.numNop                                   0                       # Number of nop insts executed (Count)
system.cpu.numRefs                           15338341                       # Number of memory reference insts executed (Count)
system.cpu.numBranches                        1657755                       # Number of branches executed (Count)
system.cpu.numStoreInsts                        26359                       # Number of stores executed (Count)
system.cpu.numRate                           1.125239                       # Inst execution rate ((Count/Cycle))
system.cpu.timesIdled                             255                       # Number of times that the entire CPU went into an idle state and unscheduled itself (Count)
system.cpu.idleCycles                            9360                       # Total number of cycles that the CPU has spent unscheduled due to idling (Cycle)
system.cpu.committedInsts                    11530709                       # Number of Instructions Simulated (Count)
system.cpu.committedOps                      22868791                       # Number of Ops (including micro ops) Simulated (Count)
system.cpu.cpi                               2.578815                       # CPI: Cycles Per Instruction ((Cycle/Count))
system.cpu.totalCpi                          2.578815                       # CPI: Total CPI of All Threads ((Cycle/Count))
system.cpu.ipc                               0.387775                       # IPC: Instructions Per Cycle ((Count/Cycle))
system.cpu.totalIpc                          0.387775                       # IPC: Total IPC of All Threads ((Count/Cycle))
system.cpu.intRegfileReads                   42449309                       # Number of integer regfile reads (Count)
system.cpu.intRegfileWrites                  10028475                       # Number of integer regfile writes (Count)
system.cpu.fpRegfileReads                     9684479                       # Number of floating regfile reads (Count)
system.cpu.fpRegfileWrites                    9616953                       # Number of floating regfile writes (Count)
system.cpu.ccRegfileReads                     8189269                       # number of cc regfile reads (Count)
system.cpu.ccRegfileWrites                    6699883                       # number of cc regfile writes (Count)
system.cpu.miscRegfileReads                  18662896                       # number of misc regfile reads (Count)
system.cpu.MemDepUnit__0.insertedLoads        4878331                       # Number of loads inserted to the mem dependence unit. (Count)
system.cpu.MemDepUnit__0.insertedStores         27399                       # Number of stores inserted to the mem dependence unit. (Count)
system.cpu.MemDepUnit__0.conflictingLoads          973                       # Number of conflicting loads. (Count)
system.cpu.MemDepUnit__0.conflictingStores          984                       # Number of conflicting stores. (Count)
system.cpu.MemDepUnit__1.insertedLoads              0                       # Number of loads inserted to the mem dependence unit. (Count)
system.cpu.MemDepUnit__1.insertedStores             0                       # Number of stores inserted to the mem dependence unit. (Count)
system.cpu.MemDepUnit__1.conflictingLoads            0                       # Number of conflicting loads. (Count)
system.cpu.MemDepUnit__1.conflictingStores            0                       # Number of conflicting stores. (Count)
system.cpu.MemDepUnit__2.insertedLoads              0                       # Number of loads inserted to the mem dependence unit. (Count)
system.cpu.MemDepUnit__2.insertedStores             0                       # Number of stores inserted to the mem dependence unit. (Count)
system.cpu.MemDepUnit__2.conflictingLoads            0                       # Number of conflicting loads. (Count)
system.cpu.MemDepUnit__2.conflictingStores            0                       # Number of conflicting stores. (Count)
system.cpu.MemDepUnit__3.insertedLoads              0                       # Number of loads inserted to the mem dependence unit. (Count)
system.cpu.MemDepUnit__3.insertedStores             0                       # Number of stores inserted to the mem dependence unit. (Count)
system.cpu.MemDepUnit__3.conflictingLoads            0                       # Number of conflicting loads. (Count)
system.cpu.MemDepUnit__3.conflictingStores            0                       # Number of conflicting stores. (Count)
system.cpu.branchPred.lookups                 1755972                       # Number of BP lookups (Count)
system.cpu.branchPred.condPredicted           1729901                       # Number of conditional branches predicted (Count)
system.cpu.branchPred.condIncorrect             26042                       # Number of conditional branches incorrect (Count)
system.cpu.branchPred.BTBLookups              1702166                       # Number of BTB lookups (Count)
system.cpu.branchPred.BTBUpdates                 1983                       # Number of BTB updates (Count)
system.cpu.branchPred.BTBHits                 1701364                       # Number of BTB hits (Count)
system.cpu.branchPred.BTBHitRatio            0.999529                       # BTB Hit Ratio (Ratio)
system.cpu.branchPred.RASUsed                     276                       # Number of times the RAS was used to get a target. (Count)
system.cpu.branchPred.RASIncorrect                  0                       # Number of incorrect RAS predictions. (Count)
system.cpu.branchPred.indirectLookups             318                       # Number of indirect predictor lookups. (Count)
system.cpu.branchPred.indirectHits                  9                       # Number of indirect target hits. (Count)
system.cpu.branchPred.indirectMisses              309                       # Number of indirect misses. (Count)
system.cpu.branchPred.indirectMispredicted           83                       # Number of mispredicted indirect branches. (Count)
system.cpu.commit.commitSquashedInsts          271097                       # The number of squashed insts skipped by commit (Count)
system.cpu.commit.branchMispredicts             25883                       # The number of times a branch was mispredicted (Count)
system.cpu.commit.numCommittedDist::samples     29676536                       # Number of insts commited each cycle (Count)
system.cpu.commit.numCommittedDist::mean     0.770602                       # Number of insts commited each cycle (Count)
system.cpu.commit.numCommittedDist::stdev     2.050095                       # Number of insts commited each cycle (Count)
system.cpu.commit.numCommittedDist::underflows            0      0.00%      0.00% # Number of insts commited each cycle (Count)
system.cpu.commit.numCommittedDist::0        24036170     80.99%     80.99% # Number of insts commited each cycle (Count)
system.cpu.commit.numCommittedDist::1         1421552      4.79%     85.78% # Number of insts commited each cycle (Count)
system.cpu.commit.numCommittedDist::2         1157962      3.90%     89.69% # Number of insts commited each cycle (Count)
system.cpu.commit.numCommittedDist::3         1010150      3.40%     93.09% # Number of insts commited each cycle (Count)
system.cpu.commit.numCommittedDist::4           23974      0.08%     93.17% # Number of insts commited each cycle (Count)
system.cpu.commit.numCommittedDist::5           39990      0.13%     93.31% # Number of insts commited each cycle (Count)
system.cpu.commit.numCommittedDist::6            1950      0.01%     93.31% # Number of insts commited each cycle (Count)
system.cpu.commit.numCommittedDist::7           84985      0.29%     93.60% # Number of insts commited each cycle (Count)
system.cpu.commit.numCommittedDist::8         1899803      6.40%    100.00% # Number of insts commited each cycle (Count)
system.cpu.commit.numCommittedDist::overflows            0      0.00%    100.00% # Number of insts commited each cycle (Count)
system.cpu.commit.numCommittedDist::min_value            0                       # Number of insts commited each cycle (Count)
system.cpu.commit.numCommittedDist::max_value            8                       # Number of insts commited each cycle (Count)
system.cpu.commit.numCommittedDist::total     29676536                       # Number of insts commited each cycle (Count)
system.cpu.commit.instsCommitted             11530709                       # Number of instructions committed (Count)
system.cpu.commit.opsCommitted               22868791                       # Number of ops (including micro ops) committed (Count)
system.cpu.commit.memRefs                     4842091                       # Number of memory references committed (Count)
system.cpu.commit.loads                       4816184                       # Number of loads committed (Count)
system.cpu.commit.amos                              0                       # Number of atomic instructions committed (Count)
system.cpu.commit.membars                           0                       # Number of memory barriers committed (Count)
system.cpu.commit.branches                    1654818                       # Number of branches committed (Count)
system.cpu.commit.vectorInstructions                0                       # Number of committed Vector instructions. (Count)
system.cpu.commit.floating                    9607457                       # Number of committed floating point instructions. (Count)
system.cpu.commit.integer                    16471779                       # Number of committed integer instructions. (Count)
system.cpu.commit.functionCalls                   129                       # Number of function calls committed. (Count)
system.cpu.commit.committedInstType_0::No_OpClass           24      0.00%      0.00% # Class of committed instruction (Count)
system.cpu.commit.committedInstType_0::IntAlu     11630218     50.86%     50.86% # Class of committed instruction (Count)
system.cpu.commit.committedInstType_0::IntMult            4      0.00%     50.86% # Class of committed instruction (Count)
system.cpu.commit.committedInstType_0::IntDiv           14      0.00%     50.86% # Class of committed instruction (Count)
system.cpu.commit.committedInstType_0::FloatAdd      3160882     13.82%     64.68% # Class of committed instruction (Count)
system.cpu.commit.committedInstType_0::FloatCmp            0      0.00%     64.68% # Class of committed instruction (Count)
system.cpu.commit.committedInstType_0::FloatCvt            0      0.00%     64.68% # Class of committed instruction (Count)
system.cpu.commit.committedInstType_0::FloatMult            0      0.00%     64.68% # Class of committed instruction (Count)
system.cpu.commit.committedInstType_0::FloatMultAcc            0      0.00%     64.68% # Class of committed instruction (Count)
system.cpu.commit.committedInstType_0::FloatDiv            0      0.00%     64.68% # Class of committed instruction (Count)
system.cpu.commit.committedInstType_0::FloatMisc            0      0.00%     64.68% # Class of committed instruction (Count)
system.cpu.commit.committedInstType_0::FloatSqrt            0      0.00%     64.68% # Class of committed instruction (Count)
system.cpu.commit.committedInstType_0::SimdAdd          374      0.00%     64.68% # Class of committed instruction (Count)
system.cpu.commit.committedInstType_0::SimdAddAcc            0      0.00%     64.68% # Class of committed instruction (Count)
system.cpu.commit.committedInstType_0::SimdAlu        49228      0.22%     64.90% # Class of committed instruction (Count)
system.cpu.commit.committedInstType_0::SimdCmp            0      0.00%     64.90% # Class of committed instruction (Count)
system.cpu.commit.committedInstType_0::SimdCvt          110      0.00%     64.90% # Class of committed instruction (Count)
system.cpu.commit.committedInstType_0::SimdMisc          212      0.00%     64.90% # Class of committed instruction (Count)
system.cpu.commit.committedInstType_0::SimdMult            0      0.00%     64.90% # Class of committed instruction (Count)
system.cpu.commit.committedInstType_0::SimdMultAcc            0      0.00%     64.90% # Class of committed instruction (Count)
system.cpu.commit.committedInstType_0::SimdShift          186      0.00%     64.90% # Class of committed instruction (Count)
system.cpu.commit.committedInstType_0::SimdShiftAcc            0      0.00%     64.90% # Class of committed instruction (Count)
system.cpu.commit.committedInstType_0::SimdDiv            0      0.00%     64.90% # Class of committed instruction (Count)
system.cpu.commit.committedInstType_0::SimdSqrt            0      0.00%     64.90% # Class of committed instruction (Count)
system.cpu.commit.committedInstType_0::SimdFloatAdd      1605012      7.02%     71.92% # Class of committed instruction (Count)
system.cpu.commit.committedInstType_0::SimdFloatAlu            0      0.00%     71.92% # Class of committed instruction (Count)
system.cpu.commit.committedInstType_0::SimdFloatCmp            0      0.00%     71.92% # Class of committed instruction (Count)
system.cpu.commit.committedInstType_0::SimdFloatCvt            0      0.00%     71.92% # Class of committed instruction (Count)
system.cpu.commit.committedInstType_0::SimdFloatDiv            0      0.00%     71.92% # Class of committed instruction (Count)
system.cpu.commit.committedInstType_0::SimdFloatMisc            0      0.00%     71.92% # Class of committed instruction (Count)
system.cpu.commit.committedInstType_0::SimdFloatMult      1580436      6.91%     78.83% # Class of committed instruction (Count)
system.cpu.commit.committedInstType_0::SimdFloatMultAcc            0      0.00%     78.83% # Class of committed instruction (Count)
system.cpu.commit.committedInstType_0::SimdFloatSqrt            0      0.00%     78.83% # Class of committed instruction (Count)
system.cpu.commit.committedInstType_0::SimdReduceAdd            0      0.00%     78.83% # Class of committed instruction (Count)
system.cpu.commit.committedInstType_0::SimdReduceAlu            0      0.00%     78.83% # Class of committed instruction (Count)
system.cpu.commit.committedInstType_0::SimdReduceCmp            0      0.00%     78.83% # Class of committed instruction (Count)
system.cpu.commit.committedInstType_0::SimdFloatReduceAdd            0      0.00%     78.83% # Class of committed instruction (Count)
system.cpu.commit.committedInstType_0::SimdFloatReduceCmp            0      0.00%     78.83% # Class of committed instruction (Count)
system.cpu.commit.committedInstType_0::SimdAes            0      0.00%     78.83% # Class of committed instruction (Count)
system.cpu.commit.committedInstType_0::SimdAesMix            0      0.00%     78.83% # Class of committed instruction (Count)
system.cpu.commit.committedInstType_0::SimdSha1Hash            0      0.00%     78.83% # Class of committed instruction (Count)
system.cpu.commit.committedInstType_0::SimdSha1Hash2            0      0.00%     78.83% # Class of committed instruction (Count)
system.cpu.commit.committedInstType_0::SimdSha256Hash            0      0.00%     78.83% # Class of committed instruction (Count)
system.cpu.commit.committedInstType_0::SimdSha256Hash2            0      0.00%     78.83% # Class of committed instruction (Count)
system.cpu.commit.committedInstType_0::SimdShaSigma2            0      0.00%     78.83% # Class of committed instruction (Count)
system.cpu.commit.committedInstType_0::SimdShaSigma3            0      0.00%     78.83% # Class of committed instruction (Count)
system.cpu.commit.committedInstType_0::SimdPredAlu            0      0.00%     78.83% # Class of committed instruction (Count)
system.cpu.commit.committedInstType_0::MemRead      1630682      7.13%     85.96% # Class of committed instruction (Count)
system.cpu.commit.committedInstType_0::MemWrite          904      0.00%     85.96% # Class of committed instruction (Count)
system.cpu.commit.committedInstType_0::FloatMemRead      3185502     13.93%     99.89% # Class of committed instruction (Count)
system.cpu.commit.committedInstType_0::FloatMemWrite        25003      0.11%    100.00% # Class of committed instruction (Count)
system.cpu.commit.committedInstType_0::IprAccess            0      0.00%    100.00% # Class of committed instruction (Count)
system.cpu.commit.committedInstType_0::InstPrefetch            0      0.00%    100.00% # Class of committed instruction (Count)
system.cpu.commit.committedInstType_0::total     22868791                       # Class of committed instruction (Count)
system.cpu.commit.commitEligibleSamples       1899803                       # number cycles where commit BW limit reached (Cycle)
system.cpu.dcache.demandHits::cpu.data        2553542                       # number of demand (read+write) hits (Count)
system.cpu.dcache.demandHits::total           2553542                       # number of demand (read+write) hits (Count)
system.cpu.dcache.overallHits::cpu.data       2553542                       # number of overall hits (Count)
system.cpu.dcache.overallHits::total          2553542                       # number of overall hits (Count)
system.cpu.dcache.demandMisses::cpu.data      2395484                       # number of demand (read+write) misses (Count)
system.cpu.dcache.demandMisses::total         2395484                       # number of demand (read+write) misses (Count)
system.cpu.dcache.overallMisses::cpu.data      2395484                       # number of overall misses (Count)
system.cpu.dcache.overallMisses::total        2395484                       # number of overall misses (Count)
system.cpu.dcache.demandMissLatency::cpu.data 153219794999                       # number of demand (read+write) miss ticks (Tick)
system.cpu.dcache.demandMissLatency::total 153219794999                       # number of demand (read+write) miss ticks (Tick)
system.cpu.dcache.overallMissLatency::cpu.data 153219794999                       # number of overall miss ticks (Tick)
system.cpu.dcache.overallMissLatency::total 153219794999                       # number of overall miss ticks (Tick)
system.cpu.dcache.demandAccesses::cpu.data      4949026                       # number of demand (read+write) accesses (Count)
system.cpu.dcache.demandAccesses::total       4949026                       # number of demand (read+write) accesses (Count)
system.cpu.dcache.overallAccesses::cpu.data      4949026                       # number of overall (read+write) accesses (Count)
system.cpu.dcache.overallAccesses::total      4949026                       # number of overall (read+write) accesses (Count)
system.cpu.dcache.demandMissRate::cpu.data     0.484031                       # miss rate for demand accesses (Ratio)
system.cpu.dcache.demandMissRate::total      0.484031                       # miss rate for demand accesses (Ratio)
system.cpu.dcache.overallMissRate::cpu.data     0.484031                       # miss rate for overall accesses (Ratio)
system.cpu.dcache.overallMissRate::total     0.484031                       # miss rate for overall accesses (Ratio)
system.cpu.dcache.demandAvgMissLatency::cpu.data 63961.936293                       # average overall miss latency in ticks ((Tick/Count))
system.cpu.dcache.demandAvgMissLatency::total 63961.936293                       # average overall miss latency in ticks ((Tick/Count))
system.cpu.dcache.overallAvgMissLatency::cpu.data 63961.936293                       # average overall miss latency ((Tick/Count))
system.cpu.dcache.overallAvgMissLatency::total 63961.936293                       # average overall miss latency ((Tick/Count))
system.cpu.dcache.blockedCycles::no_mshrs     22062923                       # number of cycles access was blocked (Cycle)
system.cpu.dcache.blockedCycles::no_targets            0                       # number of cycles access was blocked (Cycle)
system.cpu.dcache.blockedCauses::no_mshrs      1169141                       # number of times access was blocked (Count)
system.cpu.dcache.blockedCauses::no_targets            0                       # number of times access was blocked (Count)
system.cpu.dcache.avgBlocked::no_mshrs      18.871054                       # average number of cycles each access was blocked ((Cycle/Count))
system.cpu.dcache.avgBlocked::no_targets          nan                       # average number of cycles each access was blocked ((Cycle/Count))
system.cpu.dcache.writebacks::writebacks         1874                       # number of writebacks (Count)
system.cpu.dcache.writebacks::total              1874                       # number of writebacks (Count)
system.cpu.dcache.demandMshrHits::cpu.data       954979                       # number of demand (read+write) MSHR hits (Count)
system.cpu.dcache.demandMshrHits::total        954979                       # number of demand (read+write) MSHR hits (Count)
system.cpu.dcache.overallMshrHits::cpu.data       954979                       # number of overall MSHR hits (Count)
system.cpu.dcache.overallMshrHits::total       954979                       # number of overall MSHR hits (Count)
system.cpu.dcache.demandMshrMisses::cpu.data      1440505                       # number of demand (read+write) MSHR misses (Count)
system.cpu.dcache.demandMshrMisses::total      1440505                       # number of demand (read+write) MSHR misses (Count)
system.cpu.dcache.overallMshrMisses::cpu.data      1440505                       # number of overall MSHR misses (Count)
system.cpu.dcache.overallMshrMisses::total      1440505                       # number of overall MSHR misses (Count)
system.cpu.dcache.demandMshrMissLatency::cpu.data 105433588000                       # number of demand (read+write) MSHR miss ticks (Tick)
system.cpu.dcache.demandMshrMissLatency::total 105433588000                       # number of demand (read+write) MSHR miss ticks (Tick)
system.cpu.dcache.overallMshrMissLatency::cpu.data 105433588000                       # number of overall MSHR miss ticks (Tick)
system.cpu.dcache.overallMshrMissLatency::total 105433588000                       # number of overall MSHR miss ticks (Tick)
system.cpu.dcache.demandMshrMissRate::cpu.data     0.291068                       # mshr miss ratio for demand accesses (Ratio)
system.cpu.dcache.demandMshrMissRate::total     0.291068                       # mshr miss ratio for demand accesses (Ratio)
system.cpu.dcache.overallMshrMissRate::cpu.data     0.291068                       # mshr miss ratio for overall accesses (Ratio)
system.cpu.dcache.overallMshrMissRate::total     0.291068                       # mshr miss ratio for overall accesses (Ratio)
system.cpu.dcache.demandAvgMshrMissLatency::cpu.data 73192.101381                       # average overall mshr miss latency ((Tick/Count))
system.cpu.dcache.demandAvgMshrMissLatency::total 73192.101381                       # average overall mshr miss latency ((Tick/Count))
system.cpu.dcache.overallAvgMshrMissLatency::cpu.data 73192.101381                       # average overall mshr miss latency ((Tick/Count))
system.cpu.dcache.overallAvgMshrMissLatency::total 73192.101381                       # average overall mshr miss latency ((Tick/Count))
system.cpu.dcache.replacements                1439481                       # number of replacements (Count)
system.cpu.dcache.ReadReq.hits::cpu.data      2527743                       # number of ReadReq hits (Count)
system.cpu.dcache.ReadReq.hits::total         2527743                       # number of ReadReq hits (Count)
system.cpu.dcache.ReadReq.misses::cpu.data      2395375                       # number of ReadReq misses (Count)
system.cpu.dcache.ReadReq.misses::total       2395375                       # number of ReadReq misses (Count)
system.cpu.dcache.ReadReq.missLatency::cpu.data 153213093000                       # number of ReadReq miss ticks (Tick)
system.cpu.dcache.ReadReq.missLatency::total 153213093000                       # number of ReadReq miss ticks (Tick)
system.cpu.dcache.ReadReq.accesses::cpu.data      4923118                       # number of ReadReq accesses(hits+misses) (Count)
system.cpu.dcache.ReadReq.accesses::total      4923118                       # number of ReadReq accesses(hits+misses) (Count)
system.cpu.dcache.ReadReq.missRate::cpu.data     0.486556                       # miss rate for ReadReq accesses (Ratio)
system.cpu.dcache.ReadReq.missRate::total     0.486556                       # miss rate for ReadReq accesses (Ratio)
system.cpu.dcache.ReadReq.avgMissLatency::cpu.data 63962.048948                       # average ReadReq miss latency ((Tick/Count))
system.cpu.dcache.ReadReq.avgMissLatency::total 63962.048948                       # average ReadReq miss latency ((Tick/Count))
system.cpu.dcache.ReadReq.mshrHits::cpu.data       954976                       # number of ReadReq MSHR hits (Count)
system.cpu.dcache.ReadReq.mshrHits::total       954976                       # number of ReadReq MSHR hits (Count)
system.cpu.dcache.ReadReq.mshrMisses::cpu.data      1440399                       # number of ReadReq MSHR misses (Count)
system.cpu.dcache.ReadReq.mshrMisses::total      1440399                       # number of ReadReq MSHR misses (Count)
system.cpu.dcache.ReadReq.mshrMissLatency::cpu.data 105427160000                       # number of ReadReq MSHR miss ticks (Tick)
system.cpu.dcache.ReadReq.mshrMissLatency::total 105427160000                       # number of ReadReq MSHR miss ticks (Tick)
system.cpu.dcache.ReadReq.mshrMissRate::cpu.data     0.292579                       # mshr miss rate for ReadReq accesses (Ratio)
system.cpu.dcache.ReadReq.mshrMissRate::total     0.292579                       # mshr miss rate for ReadReq accesses (Ratio)
system.cpu.dcache.ReadReq.avgMshrMissLatency::cpu.data 73193.024988                       # average ReadReq mshr miss latency ((Tick/Count))
system.cpu.dcache.ReadReq.avgMshrMissLatency::total 73193.024988                       # average ReadReq mshr miss latency ((Tick/Count))
system.cpu.dcache.WriteReq.hits::cpu.data        25799                       # number of WriteReq hits (Count)
system.cpu.dcache.WriteReq.hits::total          25799                       # number of WriteReq hits (Count)
system.cpu.dcache.WriteReq.misses::cpu.data          109                       # number of WriteReq misses (Count)
system.cpu.dcache.WriteReq.misses::total          109                       # number of WriteReq misses (Count)
system.cpu.dcache.WriteReq.missLatency::cpu.data      6701999                       # number of WriteReq miss ticks (Tick)
system.cpu.dcache.WriteReq.missLatency::total      6701999                       # number of WriteReq miss ticks (Tick)
system.cpu.dcache.WriteReq.accesses::cpu.data        25908                       # number of WriteReq accesses(hits+misses) (Count)
system.cpu.dcache.WriteReq.accesses::total        25908                       # number of WriteReq accesses(hits+misses) (Count)
system.cpu.dcache.WriteReq.missRate::cpu.data     0.004207                       # miss rate for WriteReq accesses (Ratio)
system.cpu.dcache.WriteReq.missRate::total     0.004207                       # miss rate for WriteReq accesses (Ratio)
system.cpu.dcache.WriteReq.avgMissLatency::cpu.data 61486.229358                       # average WriteReq miss latency ((Tick/Count))
system.cpu.dcache.WriteReq.avgMissLatency::total 61486.229358                       # average WriteReq miss latency ((Tick/Count))
system.cpu.dcache.WriteReq.mshrHits::cpu.data            3                       # number of WriteReq MSHR hits (Count)
system.cpu.dcache.WriteReq.mshrHits::total            3                       # number of WriteReq MSHR hits (Count)
system.cpu.dcache.WriteReq.mshrMisses::cpu.data          106                       # number of WriteReq MSHR misses (Count)
system.cpu.dcache.WriteReq.mshrMisses::total          106                       # number of WriteReq MSHR misses (Count)
system.cpu.dcache.WriteReq.mshrMissLatency::cpu.data      6428000                       # number of WriteReq MSHR miss ticks (Tick)
system.cpu.dcache.WriteReq.mshrMissLatency::total      6428000                       # number of WriteReq MSHR miss ticks (Tick)
system.cpu.dcache.WriteReq.mshrMissRate::cpu.data     0.004091                       # mshr miss rate for WriteReq accesses (Ratio)
system.cpu.dcache.WriteReq.mshrMissRate::total     0.004091                       # mshr miss rate for WriteReq accesses (Ratio)
system.cpu.dcache.WriteReq.avgMshrMissLatency::cpu.data 60641.509434                       # average WriteReq mshr miss latency ((Tick/Count))
system.cpu.dcache.WriteReq.avgMshrMissLatency::total 60641.509434                       # average WriteReq mshr miss latency ((Tick/Count))
system.cpu.dcache.power_state.pwrStateResidencyTicks::UNDEFINED  29735562000                       # Cumulative time (in ticks) in various power states (Tick)
system.cpu.dcache.tags.tagsInUse          1022.812173                       # Average ticks per tags in use ((Tick/Count))
system.cpu.dcache.tags.totalRefs              3994047                       # Total number of references to valid blocks. (Count)
system.cpu.dcache.tags.sampledRefs            1440505                       # Sample count of references to valid blocks. (Count)
system.cpu.dcache.tags.avgRefs               2.772671                       # Average number of references to valid blocks. ((Count/Count))
system.cpu.dcache.tags.warmupTick              150000                       # The tick when the warmup percentage was hit. (Tick)
system.cpu.dcache.tags.occupancies::cpu.data  1022.812173                       # Average occupied blocks per tick, per requestor ((Count/Tick))
system.cpu.dcache.tags.avgOccs::cpu.data     0.998840                       # Average percentage of cache occupancy ((Ratio/Tick))
system.cpu.dcache.tags.avgOccs::total        0.998840                       # Average percentage of cache occupancy ((Ratio/Tick))
system.cpu.dcache.tags.occupanciesTaskId::1024         1024                       # Occupied blocks per task id (Count)
system.cpu.dcache.tags.ageTaskId_1024::0          335                       # Occupied blocks per task id, per block age (Count)
system.cpu.dcache.tags.ageTaskId_1024::1          688                       # Occupied blocks per task id, per block age (Count)
system.cpu.dcache.tags.ageTaskId_1024::2            1                       # Occupied blocks per task id, per block age (Count)
system.cpu.dcache.tags.ratioOccsTaskId::1024            1                       # Ratio of occupied blocks and all blocks, per task id (Ratio)
system.cpu.dcache.tags.tagAccesses           11338557                       # Number of tag accesses (Count)
system.cpu.dcache.tags.dataAccesses          11338557                       # Number of data accesses (Count)
system.cpu.dcache.tags.power_state.pwrStateResidencyTicks::UNDEFINED  29735562000                       # Cumulative time (in ticks) in various power states (Tick)
system.cpu.decode.idleCycles                   874768                       # Number of cycles decode is idle (Cycle)
system.cpu.decode.blockedCycles              25868515                       # Number of cycles decode is blocked (Cycle)
system.cpu.decode.runCycles                    993836                       # Number of cycles decode is running (Cycle)
system.cpu.decode.unblockCycles               1963184                       # Number of cycles decode is unblocking (Cycle)
system.cpu.decode.squashCycles                  25900                       # Number of cycles decode is squashing (Cycle)
system.cpu.decode.branchResolved              1629686                       # Number of times decode resolved a branch (Count)
system.cpu.decode.branchMispred                   249                       # Number of times decode detected a branch misprediction (Count)
system.cpu.decode.decodedInsts               23409058                       # Number of instructions handled by decode (Count)
system.cpu.decode.squashedInsts                  1134                       # Number of squashed instructions handled by decode (Count)
system.cpu.dtb_walker_cache.blockedCycles::no_mshrs            0                       # number of cycles access was blocked (Cycle)
system.cpu.dtb_walker_cache.blockedCycles::no_targets            0                       # number of cycles access was blocked (Cycle)
system.cpu.dtb_walker_cache.blockedCauses::no_mshrs            0                       # number of times access was blocked (Count)
system.cpu.dtb_walker_cache.blockedCauses::no_targets            0                       # number of times access was blocked (Count)
system.cpu.dtb_walker_cache.avgBlocked::no_mshrs          nan                       # average number of cycles each access was blocked ((Cycle/Count))
system.cpu.dtb_walker_cache.avgBlocked::no_targets          nan                       # average number of cycles each access was blocked ((Cycle/Count))
system.cpu.dtb_walker_cache.replacements            0                       # number of replacements (Count)
system.cpu.dtb_walker_cache.power_state.pwrStateResidencyTicks::UNDEFINED  29735562000                       # Cumulative time (in ticks) in various power states (Tick)
system.cpu.dtb_walker_cache.tags.tagsInUse            0                       # Average ticks per tags in use ((Tick/Count))
system.cpu.dtb_walker_cache.tags.totalRefs            0                       # Total number of references to valid blocks. (Count)
system.cpu.dtb_walker_cache.tags.sampledRefs            0                       # Sample count of references to valid blocks. (Count)
system.cpu.dtb_walker_cache.tags.avgRefs          nan                       # Average number of references to valid blocks. ((Count/Count))
system.cpu.dtb_walker_cache.tags.warmupTick            0                       # The tick when the warmup percentage was hit. (Tick)
system.cpu.dtb_walker_cache.tags.tagAccesses            0                       # Number of tag accesses (Count)
system.cpu.dtb_walker_cache.tags.dataAccesses            0                       # Number of data accesses (Count)
system.cpu.dtb_walker_cache.tags.power_state.pwrStateResidencyTicks::UNDEFINED  29735562000                       # Cumulative time (in ticks) in various power states (Tick)
system.cpu.fetch.icacheStallCycles              64355                       # Number of cycles fetch is stalled on an Icache miss (Cycle)
system.cpu.fetch.insts                       12324184                       # Number of instructions fetch has processed (Count)
system.cpu.fetch.branches                     1755972                       # Number of branches that fetch encountered (Count)
system.cpu.fetch.predictedBranches            1701649                       # Number of branches that fetch has predicted taken (Count)
system.cpu.fetch.cycles                      29635223                       # Number of cycles fetch has run and was not squashing or blocked (Cycle)
system.cpu.fetch.squashCycles                   52246                       # Number of cycles fetch has spent squashing (Cycle)
system.cpu.fetch.miscStallCycles                   73                       # Number of cycles fetch has spent waiting on interrupts, or bad addresses, or out of MSHRs (Cycle)
system.cpu.fetch.pendingTrapStallCycles           429                       # Number of stall cycles due to pending traps (Cycle)
system.cpu.fetch.cacheLines                     54096                       # Number of cache lines fetched (Count)
system.cpu.fetch.icacheSquashes                   375                       # Number of outstanding Icache misses that were squashed (Count)
system.cpu.fetch.nisnDist::samples           29726203                       # Number of instructions fetched each cycle (Total) (Count)
system.cpu.fetch.nisnDist::mean              0.822040                       # Number of instructions fetched each cycle (Total) (Count)
system.cpu.fetch.nisnDist::stdev             2.208845                       # Number of instructions fetched each cycle (Total) (Count)
system.cpu.fetch.nisnDist::underflows               0      0.00%      0.00% # Number of instructions fetched each cycle (Total) (Count)
system.cpu.fetch.nisnDist::0                 25564048     86.00%     86.00% # Number of instructions fetched each cycle (Total) (Count)
system.cpu.fetch.nisnDist::1                   263536      0.89%     86.88% # Number of instructions fetched each cycle (Total) (Count)
system.cpu.fetch.nisnDist::2                   263278      0.89%     87.77% # Number of instructions fetched each cycle (Total) (Count)
system.cpu.fetch.nisnDist::3                   305882      1.03%     88.80% # Number of instructions fetched each cycle (Total) (Count)
system.cpu.fetch.nisnDist::4                   264231      0.89%     89.69% # Number of instructions fetched each cycle (Total) (Count)
system.cpu.fetch.nisnDist::5                   264105      0.89%     90.58% # Number of instructions fetched each cycle (Total) (Count)
system.cpu.fetch.nisnDist::6                   910255      3.06%     93.64% # Number of instructions fetched each cycle (Total) (Count)
system.cpu.fetch.nisnDist::7                   237539      0.80%     94.44% # Number of instructions fetched each cycle (Total) (Count)
system.cpu.fetch.nisnDist::8                  1653329      5.56%    100.00% # Number of instructions fetched each cycle (Total) (Count)
system.cpu.fetch.nisnDist::overflows                0      0.00%    100.00% # Number of instructions fetched each cycle (Total) (Count)
system.cpu.fetch.nisnDist::min_value                0                       # Number of instructions fetched each cycle (Total) (Count)
system.cpu.fetch.nisnDist::max_value                8                       # Number of instructions fetched each cycle (Total) (Count)
system.cpu.fetch.nisnDist::total             29726203                       # Number of instructions fetched each cycle (Total) (Count)
system.cpu.fetch.branchRate                  0.059053                       # Number of branch fetches per cycle (Ratio)
system.cpu.fetch.rate                        0.414459                       # Number of inst fetches per cycle ((Count/Cycle))
system.cpu.icache.demandHits::cpu.inst          53532                       # number of demand (read+write) hits (Count)
system.cpu.icache.demandHits::total             53532                       # number of demand (read+write) hits (Count)
system.cpu.icache.overallHits::cpu.inst         53532                       # number of overall hits (Count)
system.cpu.icache.overallHits::total            53532                       # number of overall hits (Count)
system.cpu.icache.demandMisses::cpu.inst          564                       # number of demand (read+write) misses (Count)
system.cpu.icache.demandMisses::total             564                       # number of demand (read+write) misses (Count)
system.cpu.icache.overallMisses::cpu.inst          564                       # number of overall misses (Count)
system.cpu.icache.overallMisses::total            564                       # number of overall misses (Count)
system.cpu.icache.demandMissLatency::cpu.inst     32476000                       # number of demand (read+write) miss ticks (Tick)
system.cpu.icache.demandMissLatency::total     32476000                       # number of demand (read+write) miss ticks (Tick)
system.cpu.icache.overallMissLatency::cpu.inst     32476000                       # number of overall miss ticks (Tick)
system.cpu.icache.overallMissLatency::total     32476000                       # number of overall miss ticks (Tick)
system.cpu.icache.demandAccesses::cpu.inst        54096                       # number of demand (read+write) accesses (Count)
system.cpu.icache.demandAccesses::total         54096                       # number of demand (read+write) accesses (Count)
system.cpu.icache.overallAccesses::cpu.inst        54096                       # number of overall (read+write) accesses (Count)
system.cpu.icache.overallAccesses::total        54096                       # number of overall (read+write) accesses (Count)
system.cpu.icache.demandMissRate::cpu.inst     0.010426                       # miss rate for demand accesses (Ratio)
system.cpu.icache.demandMissRate::total      0.010426                       # miss rate for demand accesses (Ratio)
system.cpu.icache.overallMissRate::cpu.inst     0.010426                       # miss rate for overall accesses (Ratio)
system.cpu.icache.overallMissRate::total     0.010426                       # miss rate for overall accesses (Ratio)
system.cpu.icache.demandAvgMissLatency::cpu.inst 57581.560284                       # average overall miss latency in ticks ((Tick/Count))
system.cpu.icache.demandAvgMissLatency::total 57581.560284                       # average overall miss latency in ticks ((Tick/Count))
system.cpu.icache.overallAvgMissLatency::cpu.inst 57581.560284                       # average overall miss latency ((Tick/Count))
system.cpu.icache.overallAvgMissLatency::total 57581.560284                       # average overall miss latency ((Tick/Count))
system.cpu.icache.blockedCycles::no_mshrs           51                       # number of cycles access was blocked (Cycle)
system.cpu.icache.blockedCycles::no_targets            0                       # number of cycles access was blocked (Cycle)
system.cpu.icache.blockedCauses::no_mshrs            2                       # number of times access was blocked (Count)
system.cpu.icache.blockedCauses::no_targets            0                       # number of times access was blocked (Count)
system.cpu.icache.avgBlocked::no_mshrs      25.500000                       # average number of cycles each access was blocked ((Cycle/Count))
system.cpu.icache.avgBlocked::no_targets          nan                       # average number of cycles each access was blocked ((Cycle/Count))
system.cpu.icache.writebacks::writebacks          198                       # number of writebacks (Count)
system.cpu.icache.writebacks::total               198                       # number of writebacks (Count)
system.cpu.icache.demandMshrHits::cpu.inst          121                       # number of demand (read+write) MSHR hits (Count)
system.cpu.icache.demandMshrHits::total           121                       # number of demand (read+write) MSHR hits (Count)
system.cpu.icache.overallMshrHits::cpu.inst          121                       # number of overall MSHR hits (Count)
system.cpu.icache.overallMshrHits::total          121                       # number of overall MSHR hits (Count)
system.cpu.icache.demandMshrMisses::cpu.inst          443                       # number of demand (read+write) MSHR misses (Count)
system.cpu.icache.demandMshrMisses::total          443                       # number of demand (read+write) MSHR misses (Count)
system.cpu.icache.overallMshrMisses::cpu.inst          443                       # number of overall MSHR misses (Count)
system.cpu.icache.overallMshrMisses::total          443                       # number of overall MSHR misses (Count)
system.cpu.icache.demandMshrMissLatency::cpu.inst     26856000                       # number of demand (read+write) MSHR miss ticks (Tick)
system.cpu.icache.demandMshrMissLatency::total     26856000                       # number of demand (read+write) MSHR miss ticks (Tick)
system.cpu.icache.overallMshrMissLatency::cpu.inst     26856000                       # number of overall MSHR miss ticks (Tick)
system.cpu.icache.overallMshrMissLatency::total     26856000                       # number of overall MSHR miss ticks (Tick)
system.cpu.icache.demandMshrMissRate::cpu.inst     0.008189                       # mshr miss ratio for demand accesses (Ratio)
system.cpu.icache.demandMshrMissRate::total     0.008189                       # mshr miss ratio for demand accesses (Ratio)
system.cpu.icache.overallMshrMissRate::cpu.inst     0.008189                       # mshr miss ratio for overall accesses (Ratio)
system.cpu.icache.overallMshrMissRate::total     0.008189                       # mshr miss ratio for overall accesses (Ratio)
system.cpu.icache.demandAvgMshrMissLatency::cpu.inst 60623.024831                       # average overall mshr miss latency ((Tick/Count))
system.cpu.icache.demandAvgMshrMissLatency::total 60623.024831                       # average overall mshr miss latency ((Tick/Count))
system.cpu.icache.overallAvgMshrMissLatency::cpu.inst 60623.024831                       # average overall mshr miss latency ((Tick/Count))
system.cpu.icache.overallAvgMshrMissLatency::total 60623.024831                       # average overall mshr miss latency ((Tick/Count))
system.cpu.icache.replacements                    198                       # number of replacements (Count)
system.cpu.icache.ReadReq.hits::cpu.inst        53532                       # number of ReadReq hits (Count)
system.cpu.icache.ReadReq.hits::total           53532                       # number of ReadReq hits (Count)
system.cpu.icache.ReadReq.misses::cpu.inst          564                       # number of ReadReq misses (Count)
system.cpu.icache.ReadReq.misses::total           564                       # number of ReadReq misses (Count)
system.cpu.icache.ReadReq.missLatency::cpu.inst     32476000                       # number of ReadReq miss ticks (Tick)
system.cpu.icache.ReadReq.missLatency::total     32476000                       # number of ReadReq miss ticks (Tick)
system.cpu.icache.ReadReq.accesses::cpu.inst        54096                       # number of ReadReq accesses(hits+misses) (Count)
system.cpu.icache.ReadReq.accesses::total        54096                       # number of ReadReq accesses(hits+misses) (Count)
system.cpu.icache.ReadReq.missRate::cpu.inst     0.010426                       # miss rate for ReadReq accesses (Ratio)
system.cpu.icache.ReadReq.missRate::total     0.010426                       # miss rate for ReadReq accesses (Ratio)
system.cpu.icache.ReadReq.avgMissLatency::cpu.inst 57581.560284                       # average ReadReq miss latency ((Tick/Count))
system.cpu.icache.ReadReq.avgMissLatency::total 57581.560284                       # average ReadReq miss latency ((Tick/Count))
system.cpu.icache.ReadReq.mshrHits::cpu.inst          121                       # number of ReadReq MSHR hits (Count)
system.cpu.icache.ReadReq.mshrHits::total          121                       # number of ReadReq MSHR hits (Count)
system.cpu.icache.ReadReq.mshrMisses::cpu.inst          443                       # number of ReadReq MSHR misses (Count)
system.cpu.icache.ReadReq.mshrMisses::total          443                       # number of ReadReq MSHR misses (Count)
system.cpu.icache.ReadReq.mshrMissLatency::cpu.inst     26856000                       # number of ReadReq MSHR miss ticks (Tick)
system.cpu.icache.ReadReq.mshrMissLatency::total     26856000                       # number of ReadReq MSHR miss ticks (Tick)
system.cpu.icache.ReadReq.mshrMissRate::cpu.inst     0.008189                       # mshr miss rate for ReadReq accesses (Ratio)
system.cpu.icache.ReadReq.mshrMissRate::total     0.008189                       # mshr miss rate for ReadReq accesses (Ratio)
system.cpu.icache.ReadReq.avgMshrMissLatency::cpu.inst 60623.024831                       # average ReadReq mshr miss latency ((Tick/Count))
system.cpu.icache.ReadReq.avgMshrMissLatency::total 60623.024831                       # average ReadReq mshr miss latency ((Tick/Count))
system.cpu.icache.power_state.pwrStateResidencyTicks::UNDEFINED  29735562000                       # Cumulative time (in ticks) in various power states (Tick)
system.cpu.icache.tags.tagsInUse           237.916243                       # Average ticks per tags in use ((Tick/Count))
system.cpu.icache.tags.totalRefs                53975                       # Total number of references to valid blocks. (Count)
system.cpu.icache.tags.sampledRefs                443                       # Sample count of references to valid blocks. (Count)
system.cpu.icache.tags.avgRefs             121.839729                       # Average number of references to valid blocks. ((Count/Count))
system.cpu.icache.tags.warmupTick               77000                       # The tick when the warmup percentage was hit. (Tick)
system.cpu.icache.tags.occupancies::cpu.inst   237.916243                       # Average occupied blocks per tick, per requestor ((Count/Tick))
system.cpu.icache.tags.avgOccs::cpu.inst     0.929360                       # Average percentage of cache occupancy ((Ratio/Tick))
system.cpu.icache.tags.avgOccs::total        0.929360                       # Average percentage of cache occupancy ((Ratio/Tick))
system.cpu.icache.tags.occupanciesTaskId::1024          245                       # Occupied blocks per task id (Count)
system.cpu.icache.tags.ageTaskId_1024::0           41                       # Occupied blocks per task id, per block age (Count)
system.cpu.icache.tags.ageTaskId_1024::3            3                       # Occupied blocks per task id, per block age (Count)
system.cpu.icache.tags.ageTaskId_1024::4          201                       # Occupied blocks per task id, per block age (Count)
system.cpu.icache.tags.ratioOccsTaskId::1024     0.957031                       # Ratio of occupied blocks and all blocks, per task id (Ratio)
system.cpu.icache.tags.tagAccesses             108635                       # Number of tag accesses (Count)
system.cpu.icache.tags.dataAccesses            108635                       # Number of data accesses (Count)
system.cpu.icache.tags.power_state.pwrStateResidencyTicks::UNDEFINED  29735562000                       # Cumulative time (in ticks) in various power states (Tick)
system.cpu.iew.idleCycles                           0                       # Number of cycles IEW is idle (Cycle)
system.cpu.iew.squashCycles                     25900                       # Number of cycles IEW is squashing (Cycle)
system.cpu.iew.blockCycles                     566690                       # Number of cycles IEW is blocking (Cycle)
system.cpu.iew.unblockCycles                  1817652                       # Number of cycles IEW is unblocking (Cycle)
system.cpu.iew.dispatchedInsts               23135963                       # Number of instructions dispatched to IQ (Count)
system.cpu.iew.dispSquashedInsts                13400                       # Number of squashed instructions skipped by dispatch (Count)
system.cpu.iew.dispLoadInsts                  4878331                       # Number of dispatched load instructions (Count)
system.cpu.iew.dispStoreInsts                   27399                       # Number of dispatched store instructions (Count)
system.cpu.iew.dispNonSpecInsts                    25                       # Number of dispatched non-speculative instructions (Count)
system.cpu.iew.iqFullEvents                     17905                       # Number of times the IQ has become full, causing a stall (Count)
system.cpu.iew.lsqFullEvents                  1773580                       # Number of times the LSQ has become full, causing a stall (Count)
system.cpu.iew.memOrderViolationEvents              7                       # Number of memory order violations (Count)
system.cpu.iew.predictedTakenIncorrect          23984                       # Number of branches that were predicted taken incorrectly (Count)
system.cpu.iew.predictedNotTakenIncorrect         2001                       # Number of branches that were predicted not taken incorrectly (Count)
system.cpu.iew.branchMispredicts                25985                       # Number of branch mispredicts detected at execute (Count)
system.cpu.iew.instsToCommit                 22966159                       # Cumulative count of insts sent to commit (Count)
system.cpu.iew.writebackCount                22964839                       # Cumulative count of insts written-back (Count)
system.cpu.iew.producerInst                  17623008                       # Number of instructions producing a value (Count)
system.cpu.iew.consumerInst                  23974293                       # Number of instructions consuming a value (Count)
system.cpu.iew.wbRate                        0.772302                       # Insts written-back per cycle ((Count/Cycle))
system.cpu.iew.wbFanout                      0.735079                       # Average fanout of values written-back ((Count/Count))
system.cpu.interrupts.clk_domain.clock          16000                       # Clock period in ticks (Tick)
system.cpu.itb_walker_cache.blockedCycles::no_mshrs            0                       # number of cycles access was blocked (Cycle)
system.cpu.itb_walker_cache.blockedCycles::no_targets            0                       # number of cycles access was blocked (Cycle)
system.cpu.itb_walker_cache.blockedCauses::no_mshrs            0                       # number of times access was blocked (Count)
system.cpu.itb_walker_cache.blockedCauses::no_targets            0                       # number of times access was blocked (Count)
system.cpu.itb_walker_cache.avgBlocked::no_mshrs          nan                       # average number of cycles each access was blocked ((Cycle/Count))
system.cpu.itb_walker_cache.avgBlocked::no_targets          nan                       # average number of cycles each access was blocked ((Cycle/Count))
system.cpu.itb_walker_cache.replacements            0                       # number of replacements (Count)
system.cpu.itb_walker_cache.power_state.pwrStateResidencyTicks::UNDEFINED  29735562000                       # Cumulative time (in ticks) in various power states (Tick)
system.cpu.itb_walker_cache.tags.tagsInUse            0                       # Average ticks per tags in use ((Tick/Count))
system.cpu.itb_walker_cache.tags.totalRefs            0                       # Total number of references to valid blocks. (Count)
system.cpu.itb_walker_cache.tags.sampledRefs            0                       # Sample count of references to valid blocks. (Count)
system.cpu.itb_walker_cache.tags.avgRefs          nan                       # Average number of references to valid blocks. ((Count/Count))
system.cpu.itb_walker_cache.tags.warmupTick            0                       # The tick when the warmup percentage was hit. (Tick)
system.cpu.itb_walker_cache.tags.tagAccesses            0                       # Number of tag accesses (Count)
system.cpu.itb_walker_cache.tags.dataAccesses            0                       # Number of data accesses (Count)
system.cpu.itb_walker_cache.tags.power_state.pwrStateResidencyTicks::UNDEFINED  29735562000                       # Cumulative time (in ticks) in various power states (Tick)
system.cpu.lsq0.forwLoads                         117                       # Number of loads that had data forwarded from stores (Count)
system.cpu.lsq0.squashedLoads                   62147                       # Number of loads squashed (Count)
system.cpu.lsq0.ignoredResponses                    5                       # Number of memory responses ignored because the instruction is squashed (Count)
system.cpu.lsq0.memOrderViolation                   7                       # Number of memory ordering violations (Count)
system.cpu.lsq0.squashedStores                   1492                       # Number of stores squashed (Count)
system.cpu.lsq0.rescheduledLoads                    0                       # Number of loads that were rescheduled (Count)
system.cpu.lsq0.blockedByCache                1155890                       # Number of times an access to memory failed due to the cache being blocked (Count)
system.cpu.lsq0.loadToUse::samples            4816184                       # Distribution of cycle latency between the first time a load is issued and its completion (Unspecified)
system.cpu.lsq0.loadToUse::mean             80.803136                       # Distribution of cycle latency between the first time a load is issued and its completion (Unspecified)
system.cpu.lsq0.loadToUse::stdev            58.762193                       # Distribution of cycle latency between the first time a load is issued and its completion (Unspecified)
system.cpu.lsq0.loadToUse::0-9                 722936     15.01%     15.01% # Distribution of cycle latency between the first time a load is issued and its completion (Unspecified)
system.cpu.lsq0.loadToUse::10-19               133947      2.78%     17.79% # Distribution of cycle latency between the first time a load is issued and its completion (Unspecified)
system.cpu.lsq0.loadToUse::20-29                93297      1.94%     19.73% # Distribution of cycle latency between the first time a load is issued and its completion (Unspecified)
system.cpu.lsq0.loadToUse::30-39               206611      4.29%     24.02% # Distribution of cycle latency between the first time a load is issued and its completion (Unspecified)
system.cpu.lsq0.loadToUse::40-49               284407      5.91%     29.92% # Distribution of cycle latency between the first time a load is issued and its completion (Unspecified)
system.cpu.lsq0.loadToUse::50-59               324934      6.75%     36.67% # Distribution of cycle latency between the first time a load is issued and its completion (Unspecified)
system.cpu.lsq0.loadToUse::60-69               232106      4.82%     41.49% # Distribution of cycle latency between the first time a load is issued and its completion (Unspecified)
system.cpu.lsq0.loadToUse::70-79               385369      8.00%     49.49% # Distribution of cycle latency between the first time a load is issued and its completion (Unspecified)
system.cpu.lsq0.loadToUse::80-89               693470     14.40%     63.89% # Distribution of cycle latency between the first time a load is issued and its completion (Unspecified)
system.cpu.lsq0.loadToUse::90-99               299927      6.23%     70.12% # Distribution of cycle latency between the first time a load is issued and its completion (Unspecified)
[...]
system.mem_ctrls.dram.bwWrite::total          4033420                       # Write bandwidth from this memory ((Byte/Second))
system.mem_ctrls.dram.bwTotal::writebacks      4033420                       # Total bandwidth to/from this memory ((Byte/Second))
system.mem_ctrls.dram.bwTotal::cpu.inst        953471                       # Total bandwidth to/from this memory ((Byte/Second))
system.mem_ctrls.dram.bwTotal::cpu.data    3100406174                       # Total bandwidth to/from this memory ((Byte/Second))
system.mem_ctrls.dram.bwTotal::total       3105393064                       # Total bandwidth to/from this memory ((Byte/Second))
system.mem_ctrls.dram.readBursts              1440736                       # Number of DRAM read bursts (Count)
system.mem_ctrls.dram.writeBursts                1840                       # Number of DRAM write bursts (Count)
system.mem_ctrls.dram.perBankRdBursts::0        90799                       # Per bank write bursts (Count)
system.mem_ctrls.dram.perBankRdBursts::1        90754                       # Per bank write bursts (Count)
system.mem_ctrls.dram.perBankRdBursts::2        89759                       # Per bank write bursts (Count)
system.mem_ctrls.dram.perBankRdBursts::3        89793                       # Per bank write bursts (Count)
system.mem_ctrls.dram.perBankRdBursts::4        90302                       # Per bank write bursts (Count)
system.mem_ctrls.dram.perBankRdBursts::5        90118                       # Per bank write bursts (Count)
system.mem_ctrls.dram.perBankRdBursts::6        89089                       # Per bank write bursts (Count)
system.mem_ctrls.dram.perBankRdBursts::7        90234                       # Per bank write bursts (Count)
system.mem_ctrls.dram.perBankRdBursts::8        90360                       # Per bank write bursts (Count)
system.mem_ctrls.dram.perBankRdBursts::9        89992                       # Per bank write bursts (Count)
system.mem_ctrls.dram.perBankRdBursts::10        90310                       # Per bank write bursts (Count)
system.mem_ctrls.dram.perBankRdBursts::11        89429                       # Per bank write bursts (Count)
system.mem_ctrls.dram.perBankRdBursts::12        89686                       # Per bank write bursts (Count)
system.mem_ctrls.dram.perBankRdBursts::13        90421                       # Per bank write bursts (Count)
system.mem_ctrls.dram.perBankRdBursts::14        89440                       # Per bank write bursts (Count)
system.mem_ctrls.dram.perBankRdBursts::15        90250                       # Per bank write bursts (Count)
system.mem_ctrls.dram.perBankWrBursts::0           27                       # Per bank write bursts (Count)
system.mem_ctrls.dram.perBankWrBursts::1           18                       # Per bank write bursts (Count)
system.mem_ctrls.dram.perBankWrBursts::2            2                       # Per bank write bursts (Count)
system.mem_ctrls.dram.perBankWrBursts::3           48                       # Per bank write bursts (Count)
system.mem_ctrls.dram.perBankWrBursts::4           22                       # Per bank write bursts (Count)
system.mem_ctrls.dram.perBankWrBursts::5          185                       # Per bank write bursts (Count)
system.mem_ctrls.dram.perBankWrBursts::6          216                       # Per bank write bursts (Count)
system.mem_ctrls.dram.perBankWrBursts::7          239                       # Per bank write bursts (Count)
system.mem_ctrls.dram.perBankWrBursts::8          385                       # Per bank write bursts (Count)
system.mem_ctrls.dram.perBankWrBursts::9          392                       # Per bank write bursts (Count)
system.mem_ctrls.dram.perBankWrBursts::10          236                       # Per bank write bursts (Count)
system.mem_ctrls.dram.perBankWrBursts::11            0                       # Per bank write bursts (Count)
system.mem_ctrls.dram.perBankWrBursts::12           12                       # Per bank write bursts (Count)
system.mem_ctrls.dram.perBankWrBursts::13           10                       # Per bank write bursts (Count)
system.mem_ctrls.dram.perBankWrBursts::14           29                       # Per bank write bursts (Count)
system.mem_ctrls.dram.perBankWrBursts::15           19                       # Per bank write bursts (Count)
system.mem_ctrls.dram.totQLat             31319656000                       # Total ticks spent queuing (Tick)
system.mem_ctrls.dram.totBusLat            7203680000                       # Total ticks spent in databus transfers (Tick)
system.mem_ctrls.dram.totMemAccLat        58333456000                       # Total ticks spent from burst creation until serviced by the DRAM (Tick)
system.mem_ctrls.dram.avgQLat                21738.65                       # Average queueing delay per DRAM burst ((Tick/Count))
system.mem_ctrls.dram.avgBusLat               5000.00                       # Average bus latency per DRAM burst ((Tick/Count))
system.mem_ctrls.dram.avgMemAccLat           40488.65                       # Average memory access latency per DRAM burst ((Tick/Count))
system.mem_ctrls.dram.readRowHits              835150                       # Number of row buffer hits during reads (Count)
system.mem_ctrls.dram.writeRowHits               1666                       # Number of row buffer hits during writes (Count)
system.mem_ctrls.dram.readRowHitRate            57.97                       # Row buffer hit rate for reads (Ratio)
system.mem_ctrls.dram.writeRowHitRate           90.54                       # Row buffer hit rate for writes (Ratio)
system.mem_ctrls.dram.bytesPerActivate::samples       605745                       # Bytes accessed per row activation (Byte)
system.mem_ctrls.dram.bytesPerActivate::mean   152.409902                       # Bytes accessed per row activation (Byte)
system.mem_ctrls.dram.bytesPerActivate::gmean   127.968309                       # Bytes accessed per row activation (Byte)
system.mem_ctrls.dram.bytesPerActivate::stdev    95.762777                       # Bytes accessed per row activation (Byte)
system.mem_ctrls.dram.bytesPerActivate::0-127       207157     34.20%     34.20% # Bytes accessed per row activation (Byte)
system.mem_ctrls.dram.bytesPerActivate::128-255       285502     47.13%     81.33% # Bytes accessed per row activation (Byte)
system.mem_ctrls.dram.bytesPerActivate::256-383        88422     14.60%     95.93% # Bytes accessed per row activation (Byte)
system.mem_ctrls.dram.bytesPerActivate::384-511        19551      3.23%     99.16% # Bytes accessed per row activation (Byte)
system.mem_ctrls.dram.bytesPerActivate::512-639         4040      0.67%     99.82% # Bytes accessed per row activation (Byte)
system.mem_ctrls.dram.bytesPerActivate::640-767          750      0.12%     99.95% # Bytes accessed per row activation (Byte)
system.mem_ctrls.dram.bytesPerActivate::768-895          175      0.03%     99.98% # Bytes accessed per row activation (Byte)
system.mem_ctrls.dram.bytesPerActivate::896-1023           48      0.01%     99.98% # Bytes accessed per row activation (Byte)
system.mem_ctrls.dram.bytesPerActivate::1024-1151          100      0.02%    100.00% # Bytes accessed per row activation (Byte)
system.mem_ctrls.dram.bytesPerActivate::total       605745                       # Bytes accessed per row activation (Byte)
system.mem_ctrls.dram.bytesRead              92207104                       # Total bytes read (Byte)
system.mem_ctrls.dram.bytesWritten             117760                       # Total bytes written (Byte)
system.mem_ctrls.dram.avgRdBW             3100.903356                       # Average DRAM read bandwidth in MiBytes/s ((Byte/Second))
system.mem_ctrls.dram.avgWrBW                3.960241                       # Average DRAM write bandwidth in MiBytes/s ((Byte/Second))
system.mem_ctrls.dram.peakBW                 12800.00                       # Theoretical peak bandwidth in MiByte/s ((Byte/Second))
system.mem_ctrls.dram.busUtil                   24.26                       # Data bus utilization in percentage (Ratio)
system.mem_ctrls.dram.busUtilRead               24.23                       # Data bus utilization in percentage for reads (Ratio)
system.mem_ctrls.dram.busUtilWrite               0.03                       # Data bus utilization in percentage for writes (Ratio)
system.mem_ctrls.dram.pageHitRate               58.01                       # Row buffer hit rate, read and write combined (Ratio)
system.mem_ctrls.dram.power_state.pwrStateResidencyTicks::UNDEFINED  29735562000                       # Cumulative time (in ticks) in various power states (Tick)
system.mem_ctrls.dram.rank0.actEnergy      2134345920                       # Energy for activate commands per rank (pJ) (Joule)
system.mem_ctrls.dram.rank0.preEnergy      1134405195                       # Energy for precharge commands per rank (pJ) (Joule)
system.mem_ctrls.dram.rank0.readEnergy     5146854720                       # Energy for read commands per rank (pJ) (Joule)
system.mem_ctrls.dram.rank0.writeEnergy       3951540                       # Energy for write commands per rank (pJ) (Joule)
system.mem_ctrls.dram.rank0.refreshEnergy 2346695520.000000                       # Energy for refresh commands per rank (pJ) (Joule)
system.mem_ctrls.dram.rank0.actBackEnergy  13418256000                       # Energy for active background per rank (pJ) (Joule)
system.mem_ctrls.dram.rank0.preBackEnergy    118872000                       # Energy for precharge background per rank (pJ) (Joule)
system.mem_ctrls.dram.rank0.actPowerDownEnergy            0                       # Energy for active power-down per rank (pJ) (Joule)
system.mem_ctrls.dram.rank0.prePowerDownEnergy            0                       # Energy for precharge power-down per rank (pJ) (Joule)
system.mem_ctrls.dram.rank0.selfRefreshEnergy            0                       # Energy for self refresh per rank (pJ) (Joule)
system.mem_ctrls.dram.rank0.totalEnergy   24303380895                       # Total energy per rank (pJ) (Joule)
system.mem_ctrls.dram.rank0.averagePower   817.317019                       # Core power per rank (mW) (Watt)
system.mem_ctrls.dram.rank0.totalIdleTime            0                       # Total Idle time Per DRAM Rank (Tick)
system.mem_ctrls.dram.rank0.pwrStateTime::IDLE    201652500                       # Time in different power states (Tick)
system.mem_ctrls.dram.rank0.pwrStateTime::REF    992680000                       # Time in different power states (Tick)
system.mem_ctrls.dram.rank0.pwrStateTime::SREF            0                       # Time in different power states (Tick)
system.mem_ctrls.dram.rank0.pwrStateTime::PRE_PDN            0                       # Time in different power states (Tick)
system.mem_ctrls.dram.rank0.pwrStateTime::ACT  28541229500                       # Time in different power states (Tick)
system.mem_ctrls.dram.rank0.pwrStateTime::ACT_PDN            0                       # Time in different power states (Tick)
system.mem_ctrls.dram.rank1.actEnergy      2190780480                       # Energy for activate commands per rank (pJ) (Joule)
system.mem_ctrls.dram.rank1.preEnergy      1164397080                       # Energy for precharge commands per rank (pJ) (Joule)
system.mem_ctrls.dram.rank1.readEnergy     5140000320                       # Energy for read commands per rank (pJ) (Joule)
system.mem_ctrls.dram.rank1.writeEnergy       5653260                       # Energy for write commands per rank (pJ) (Joule)
system.mem_ctrls.dram.rank1.refreshEnergy 2346695520.000000                       # Energy for refresh commands per rank (pJ) (Joule)
system.mem_ctrls.dram.rank1.actBackEnergy  13409470590                       # Energy for active background per rank (pJ) (Joule)
system.mem_ctrls.dram.rank1.preBackEnergy    126270240                       # Energy for precharge background per rank (pJ) (Joule)
system.mem_ctrls.dram.rank1.actPowerDownEnergy            0                       # Energy for active power-down per rank (pJ) (Joule)
system.mem_ctrls.dram.rank1.prePowerDownEnergy            0                       # Energy for precharge power-down per rank (pJ) (Joule)
system.mem_ctrls.dram.rank1.selfRefreshEnergy            0                       # Energy for self refresh per rank (pJ) (Joule)
system.mem_ctrls.dram.rank1.totalEnergy   24383267490                       # Total energy per rank (pJ) (Joule)
system.mem_ctrls.dram.rank1.averagePower   820.003587                       # Core power per rank (mW) (Watt)
system.mem_ctrls.dram.rank1.totalIdleTime            0                       # Total Idle time Per DRAM Rank (Tick)
system.mem_ctrls.dram.rank1.pwrStateTime::IDLE    220986750                       # Time in different power states (Tick)
system.mem_ctrls.dram.rank1.pwrStateTime::REF    992680000                       # Time in different power states (Tick)
system.mem_ctrls.dram.rank1.pwrStateTime::SREF            0                       # Time in different power states (Tick)
system.mem_ctrls.dram.rank1.pwrStateTime::PRE_PDN            0                       # Time in different power states (Tick)
system.mem_ctrls.dram.rank1.pwrStateTime::ACT  28521895250                       # Time in different power states (Tick)
system.mem_ctrls.dram.rank1.pwrStateTime::ACT_PDN            0                       # Time in different power states (Tick)
system.mem_ctrls.power_state.pwrStateResidencyTicks::UNDEFINED  29735562000                       # Cumulative time (in ticks) in various power states (Tick)
system.membus.transDist::ReadResp             1440842                       # Transaction distribution (Count)
system.membus.transDist::WritebackDirty          1874                       # Transaction distribution (Count)
system.membus.transDist::WritebackClean           198                       # Transaction distribution (Count)
system.membus.transDist::CleanEvict           1437607                       # Transaction distribution (Count)
system.membus.transDist::ReadExReq                106                       # Transaction distribution (Count)
system.membus.transDist::ReadExResp               106                       # Transaction distribution (Count)
system.membus.transDist::ReadCleanReq             443                       # Transaction distribution (Count)
system.membus.transDist::ReadSharedReq        1440399                       # Transaction distribution (Count)
system.membus.pktCount_system.cpu.icache.mem_side_port::system.mem_ctrls.port         1084                       # Packet count per connected requestor and responder (Count)
system.membus.pktCount_system.cpu.icache.mem_side_port::total         1084                       # Packet count per connected requestor and responder (Count)
system.membus.pktCount_system.cpu.dcache.mem_side_port::system.mem_ctrls.port      4320491                       # Packet count per connected requestor and responder (Count)
system.membus.pktCount_system.cpu.dcache.mem_side_port::total      4320491                       # Packet count per connected requestor and responder (Count)
system.membus.pktCount::total                 4321575                       # Packet count per connected requestor and responder (Count)
system.membus.pktSize_system.cpu.icache.mem_side_port::system.mem_ctrls.port        41024                       # Cumulative packet size per connected requestor and responder (Byte)
system.membus.pktSize_system.cpu.icache.mem_side_port::total        41024                       # Cumulative packet size per connected requestor and responder (Byte)
system.membus.pktSize_system.cpu.dcache.mem_side_port::system.mem_ctrls.port     92312256                       # Cumulative packet size per connected requestor and responder (Byte)
system.membus.pktSize_system.cpu.dcache.mem_side_port::total     92312256                       # Cumulative packet size per connected requestor and responder (Byte)
system.membus.pktSize::total                 92353280                       # Cumulative packet size per connected requestor and responder (Byte)
system.membus.snoops                                0                       # Total snoops (Count)
system.membus.snoopTraffic                          0                       # Total snoop traffic (Byte)
system.membus.snoopFanout::samples            1440948                       # Request fanout histogram (Count)
system.membus.snoopFanout::mean              0.000001                       # Request fanout histogram (Count)
system.membus.snoopFanout::stdev             0.001178                       # Request fanout histogram (Count)
system.membus.snoopFanout::underflows               0      0.00%      0.00% # Request fanout histogram (Count)
system.membus.snoopFanout::0                  1440946    100.00%    100.00% # Request fanout histogram (Count)
system.membus.snoopFanout::1                        2      0.00%    100.00% # Request fanout histogram (Count)
system.membus.snoopFanout::2                        0      0.00%    100.00% # Request fanout histogram (Count)
system.membus.snoopFanout::3                        0      0.00%    100.00% # Request fanout histogram (Count)
system.membus.snoopFanout::4                        0      0.00%    100.00% # Request fanout histogram (Count)
system.membus.snoopFanout::overflows                0      0.00%    100.00% # Request fanout histogram (Count)
system.membus.snoopFanout::min_value                0                       # Request fanout histogram (Count)
system.membus.snoopFanout::max_value                1                       # Request fanout histogram (Count)
system.membus.snoopFanout::total              1440948                       # Request fanout histogram (Count)
system.membus.power_state.pwrStateResidencyTicks::UNDEFINED  29735562000                       # Cumulative time (in ticks) in various power states (Tick)
system.membus.reqLayer2.occupancy          2888915000                       # Layer occupancy (ticks) (Tick)
system.membus.reqLayer2.utilization               0.1                       # Layer utilization (Ratio)
system.membus.respLayer1.occupancy            2355750                       # Layer occupancy (ticks) (Tick)
system.membus.respLayer1.utilization              0.0                       # Layer utilization (Ratio)
system.membus.respLayer2.occupancy         7675605500                       # Layer occupancy (ticks) (Tick)
system.membus.respLayer2.utilization              0.3                       # Layer utilization (Ratio)
system.membus.snoop_filter.totRequests        2880627                       # Total number of requests made to the snoop filter. (Count)
system.membus.snoop_filter.hitSingleRequests      1439679                       # Number of requests hitting in the snoop filter with a single holder of the requested data. (Count)
system.membus.snoop_filter.hitMultiRequests            2                       # Number of requests hitting in the snoop filter with multiple (>1) holders of the requested data. (Count)
system.membus.snoop_filter.totSnoops                0                       # Total number of snoops made to the snoop filter. (Count)
system.membus.snoop_filter.hitSingleSnoops            0                       # Number of snoops hitting in the snoop filter with a single holder of the requested data. (Count)
system.membus.snoop_filter.hitMultiSnoops            0                       # Number of snoops hitting in the snoop filter with multiple (>1) holders of the requested data. (Count)
system.voltage_domain.voltage                       1                       # Voltage in Volts (Volt)
system.workload.inst.arm                            0                       # number of arm instructions executed (Count)
system.workload.inst.quiesce                        0                       # number of quiesce instructions executed (Count)

---------- End Simulation Statistics   ----------
