
---------- Begin Simulation Statistics ----------
simSeconds                                   0.001807                       # Number of seconds simulated (Second)
simTicks                                   1807062000                       # Number of ticks simulated (Tick)
finalTick                                  1807062000                       # Number of ticks from beginning of simulation (restored from checkpoints and never reset) (Tick)
simFreq                                  1000000000000                       # The number of ticks per simulated second ((Tick/Second))
hostSeconds                                     14.18                       # Real time elapsed on the host (Second)
hostTickRate                                127430736                       # The number of ticks simulated per host second (ticks/s) ((Tick/Second))
hostMemory                                     692256                       # Number of bytes of host memory used (Byte)
simInsts                                      2574837                       # Number of instructions simulated (Count)
simOps                                        4298277                       # Number of ops (including micro ops) simulated (Count)
hostInstRate                                   181572                       # Simulator instruction rate (inst/s) ((Count/Second))
hostOpRate                                     303104                       # Simulator op (including micro ops) rate (op/s) ((Count/Second))
system.clk_domain.clock                          1000                       # Clock period in ticks (Tick)
system.cpu.numCycles                          1807063                       # Number of cpu cycles simulated (Cycle)
system.cpu.numWorkItemsStarted                      0                       # Number of work items this cpu started (Count)
system.cpu.numWorkItemsCompleted                    0                       # Number of work items this cpu completed (Count)
system.cpu.instsAdded                         6115943                       # Number of instructions added to the IQ (excludes non-spec) (Count)
system.cpu.nonSpecInstsAdded                       68                       # Number of non-speculative instructions added to the IQ (Count)
system.cpu.instsIssued                        5870304                       # Number of instructions issued (Count)
system.cpu.squashedInstsIssued                  16862                       # Number of squashed instructions issued (Count)
system.cpu.squashedInstsExamined              1817728                       # Number of squashed instructions iterated over during squash; mainly for profiling (Count)
system.cpu.squashedOperandsExamined           1719971                       # Number of squashed operands that are examined and possibly removed from graph (Count)
system.cpu.squashedNonSpecRemoved                  67                       # Number of squashed non-spec instructions that were removed (Count)
system.cpu.numIssuedDist::samples             1796576                       # Number of insts issued each cycle (Count)
system.cpu.numIssuedDist::mean               3.267496                       # Number of insts issued each cycle (Count)
system.cpu.numIssuedDist::stdev              2.808148                       # Number of insts issued each cycle (Count)
system.cpu.numIssuedDist::underflows                0      0.00%      0.00% # Number of insts issued each cycle (Count)
system.cpu.numIssuedDist::0                    556447     30.97%     30.97% # Number of insts issued each cycle (Count)
system.cpu.numIssuedDist::1                    142196      7.91%     38.89% # Number of insts issued each cycle (Count)
system.cpu.numIssuedDist::2                    127617      7.10%     45.99% # Number of insts issued each cycle (Count)
system.cpu.numIssuedDist::3                    101610      5.66%     51.65% # Number of insts issued each cycle (Count)
system.cpu.numIssuedDist::4                    103837      5.78%     57.43% # Number of insts issued each cycle (Count)
system.cpu.numIssuedDist::5                    159876      8.90%     66.33% # Number of insts issued each cycle (Count)
system.cpu.numIssuedDist::6                    351428     19.56%     85.89% # Number of insts issued each cycle (Count)
system.cpu.numIssuedDist::7                    183772     10.23%     96.12% # Number of insts issued each cycle (Count)
system.cpu.numIssuedDist::8                     69793      3.88%    100.00% # Number of insts issued each cycle (Count)
system.cpu.numIssuedDist::overflows                 0      0.00%    100.00% # Number of insts issued each cycle (Count)
system.cpu.numIssuedDist::min_value                 0                       # Number of insts issued each cycle (Count)
system.cpu.numIssuedDist::max_value                 8                       # Number of insts issued each cycle (Count)
system.cpu.numIssuedDist::total               1796576                       # Number of insts issued each cycle (Count)
system.cpu.statFuBusy::No_OpClass                   0      0.00%      0.00% # attempts to use FU when none available (Count)
system.cpu.statFuBusy::IntAlu                  201302     99.84%     99.84% # attempts to use FU when none available (Count)
system.cpu.statFuBusy::IntMult                      0      0.00%     99.84% # attempts to use FU when none available (Count)
system.cpu.statFuBusy::IntDiv                       0      0.00%     99.84% # attempts to use FU when none available (Count)
system.cpu.statFuBusy::FloatAdd                     0      0.00%     99.84% # attempts to use FU when none available (Count)
system.cpu.statFuBusy::FloatCmp                     0      0.00%     99.84% # attempts to use FU when none available (Count)
system.cpu.statFuBusy::FloatCvt                     0      0.00%     99.84% # attempts to use FU when none available (Count)
system.cpu.statFuBusy::FloatMult                    0      0.00%     99.84% # attempts to use FU when none available (Count)
system.cpu.statFuBusy::FloatMultAcc                 0      0.00%     99.84% # attempts to use FU when none available (Count)
system.cpu.statFuBusy::FloatDiv                     0      0.00%     99.84% # attempts to use FU when none available (Count)
system.cpu.statFuBusy::FloatMisc                    0      0.00%     99.84% # attempts to use FU when none available (Count)
system.cpu.statFuBusy::FloatSqrt                    0      0.00%     99.84% # attempts to use FU when none available (Count)
system.cpu.statFuBusy::SimdAdd                      0      0.00%     99.84% # attempts to use FU when none available (Count)
system.cpu.statFuBusy::SimdAddAcc                   0      0.00%     99.84% # attempts to use FU when none available (Count)
system.cpu.statFuBusy::SimdAlu                      9      0.00%     99.84% # attempts to use FU when none available (Count)
system.cpu.statFuBusy::SimdCmp                      0      0.00%     99.84% # attempts to use FU when none available (Count)
system.cpu.statFuBusy::SimdCvt                      1      0.00%     99.85% # attempts to use FU when none available (Count)
system.cpu.statFuBusy::SimdMisc                     1      0.00%     99.85% # attempts to use FU when none available (Count)
system.cpu.statFuBusy::SimdMult                     0      0.00%     99.85% # attempts to use FU when none available (Count)
system.cpu.statFuBusy::SimdMultAcc                  0      0.00%     99.85% # attempts to use FU when none available (Count)
system.cpu.statFuBusy::SimdShift                    0      0.00%     99.85% # attempts to use FU when none available (Count)
system.cpu.statFuBusy::SimdShiftAcc                 0      0.00%     99.85% # attempts to use FU when none available (Count)
system.cpu.statFuBusy::SimdDiv                      0      0.00%     99.85% # attempts to use FU when none available (Count)
system.cpu.statFuBusy::SimdSqrt                     0      0.00%     99.85% # attempts to use FU when none available (Count)
system.cpu.statFuBusy::SimdFloatAdd                 0      0.00%     99.85% # attempts to use FU when none available (Count)
system.cpu.statFuBusy::SimdFloatAlu                 0      0.00%     99.85% # attempts to use FU when none available (Count)
system.cpu.statFuBusy::SimdFloatCmp                 0      0.00%     99.85% # attempts to use FU when none available (Count)
system.cpu.statFuBusy::SimdFloatCvt                 0      0.00%     99.85% # attempts to use FU when none available (Count)
system.cpu.statFuBusy::SimdFloatDiv                 0      0.00%     99.85% # attempts to use FU when none available (Count)
system.cpu.statFuBusy::SimdFloatMisc                0      0.00%     99.85% # attempts to use FU when none available (Count)
system.cpu.statFuBusy::SimdFloatMult                0      0.00%     99.85% # attempts to use FU when none available (Count)
system.cpu.statFuBusy::SimdFloatMultAcc             0      0.00%     99.85% # attempts to use FU when none available (Count)
system.cpu.statFuBusy::SimdFloatSqrt                0      0.00%     99.85% # attempts to use FU when none available (Count)
system.cpu.statFuBusy::SimdReduceAdd                0      0.00%     99.85% # attempts to use FU when none available (Count)
system.cpu.statFuBusy::SimdReduceAlu                0      0.00%     99.85% # attempts to use FU when none available (Count)
system.cpu.statFuBusy::SimdReduceCmp                0      0.00%     99.85% # attempts to use FU when none available (Count)
system.cpu.statFuBusy::SimdFloatReduceAdd            0      0.00%     99.85% # attempts to use FU when none available (Count)
system.cpu.statFuBusy::SimdFloatReduceCmp            0      0.00%     99.85% # attempts to use FU when none available (Count)
system.cpu.statFuBusy::SimdAes                      0      0.00%     99.85% # attempts to use FU when none available (Count)
system.cpu.statFuBusy::SimdAesMix                   0      0.00%     99.85% # attempts to use FU when none available (Count)
system.cpu.statFuBusy::SimdSha1Hash                 0      0.00%     99.85% # attempts to use FU when none available (Count)
system.cpu.statFuBusy::SimdSha1Hash2                0      0.00%     99.85% # attempts to use FU when none available (Count)
system.cpu.statFuBusy::SimdSha256Hash               0      0.00%     99.85% # attempts to use FU when none available (Count)
system.cpu.statFuBusy::SimdSha256Hash2              0      0.00%     99.85% # attempts to use FU when none available (Count)
system.cpu.statFuBusy::SimdShaSigma2                0      0.00%     99.85% # attempts to use FU when none available (Count)
system.cpu.statFuBusy::SimdShaSigma3                0      0.00%     99.85% # attempts to use FU when none available (Count)
system.cpu.statFuBusy::SimdPredAlu                  0      0.00%     99.85% # attempts to use FU when none available (Count)
system.cpu.statFuBusy::MemRead                     16      0.01%     99.85% # attempts to use FU when none available (Count)
system.cpu.statFuBusy::MemWrite                     2      0.00%     99.85% # attempts to use FU when none available (Count)
system.cpu.statFuBusy::FloatMemRead               278      0.14%     99.99% # attempts to use FU when none available (Count)
system.cpu.statFuBusy::FloatMemWrite               15      0.01%    100.00% # attempts to use FU when none available (Count)
system.cpu.statFuBusy::IprAccess                    0      0.00%    100.00% # attempts to use FU when none available (Count)
system.cpu.statFuBusy::InstPrefetch                 0      0.00%    100.00% # attempts to use FU when none available (Count)
system.cpu.statIssuedInstType_0::No_OpClass         5696      0.10%      0.10% # Number of instructions issued per FU type, per thread (Count)
system.cpu.statIssuedInstType_0::IntAlu       5000545     85.18%     85.28% # Number of instructions issued per FU type, per thread (Count)
system.cpu.statIssuedInstType_0::IntMult            4      0.00%     85.28% # Number of instructions issued per FU type, per thread (Count)
system.cpu.statIssuedInstType_0::IntDiv            18      0.00%     85.28% # Number of instructions issued per FU type, per thread (Count)
system.cpu.statIssuedInstType_0::FloatAdd           13      0.00%     85.28% # Number of instructions issued per FU type, per thread (Count)
system.cpu.statIssuedInstType_0::FloatCmp            0      0.00%     85.28% # Number of instructions issued per FU type, per thread (Count)
system.cpu.statIssuedInstType_0::FloatCvt            0      0.00%     85.28% # Number of instructions issued per FU type, per thread (Count)
system.cpu.statIssuedInstType_0::FloatMult            0      0.00%     85.28% # Number of instructions issued per FU type, per thread (Count)
system.cpu.statIssuedInstType_0::FloatMultAcc            0      0.00%     85.28% # Number of instructions issued per FU type, per thread (Count)
system.cpu.statIssuedInstType_0::FloatDiv            0      0.00%     85.28% # Number of instructions issued per FU type, per thread (Count)
system.cpu.statIssuedInstType_0::FloatMisc            0      0.00%     85.28% # Number of instructions issued per FU type, per thread (Count)
system.cpu.statIssuedInstType_0::FloatSqrt            0      0.00%     85.28% # Number of instructions issued per FU type, per thread (Count)
system.cpu.statIssuedInstType_0::SimdAdd          378      0.01%     85.29% # Number of instructions issued per FU type, per thread (Count)
system.cpu.statIssuedInstType_0::SimdAddAcc            0      0.00%     85.29% # Number of instructions issued per FU type, per thread (Count)
system.cpu.statIssuedInstType_0::SimdAlu           78      0.00%     85.29% # Number of instructions issued per FU type, per thread (Count)
system.cpu.statIssuedInstType_0::SimdCmp            0      0.00%     85.29% # Number of instructions issued per FU type, per thread (Count)
system.cpu.statIssuedInstType_0::SimdCvt          113      0.00%     85.29% # Number of instructions issued per FU type, per thread (Count)
system.cpu.statIssuedInstType_0::SimdMisc          212      0.00%     85.29% # Number of instructions issued per FU type, per thread (Count)
system.cpu.statIssuedInstType_0::SimdMult            0      0.00%     85.29% # Number of instructions issued per FU type, per thread (Count)
system.cpu.statIssuedInstType_0::SimdMultAcc            0      0.00%     85.29% # Number of instructions issued per FU type, per thread (Count)
system.cpu.statIssuedInstType_0::SimdShift          188      0.00%     85.30% # Number of instructions issued per FU type, per thread (Count)
system.cpu.statIssuedInstType_0::SimdShiftAcc            0      0.00%     85.30% # Number of instructions issued per FU type, per thread (Count)
system.cpu.statIssuedInstType_0::SimdDiv            0      0.00%     85.30% # Number of instructions issued per FU type, per thread (Count)
system.cpu.statIssuedInstType_0::SimdSqrt            0      0.00%     85.30% # Number of instructions issued per FU type, per thread (Count)
system.cpu.statIssuedInstType_0::SimdFloatAdd            0      0.00%     85.30% # Number of instructions issued per FU type, per thread (Count)
system.cpu.statIssuedInstType_0::SimdFloatAlu            0      0.00%     85.30% # Number of instructions issued per FU type, per thread (Count)
system.cpu.statIssuedInstType_0::SimdFloatCmp            0      0.00%     85.30% # Number of instructions issued per FU type, per thread (Count)
system.cpu.statIssuedInstType_0::SimdFloatCvt            0      0.00%     85.30% # Number of instructions issued per FU type, per thread (Count)
system.cpu.statIssuedInstType_0::SimdFloatDiv            0      0.00%     85.30% # Number of instructions issued per FU type, per thread (Count)
system.cpu.statIssuedInstType_0::SimdFloatMisc            0      0.00%     85.30% # Number of instructions issued per FU type, per thread (Count)
system.cpu.statIssuedInstType_0::SimdFloatMult            0      0.00%     85.30% # Number of instructions issued per FU type, per thread (Count)
system.cpu.statIssuedInstType_0::SimdFloatMultAcc            0      0.00%     85.30% # Number of instructions issued per FU type, per thread (Count)
system.cpu.statIssuedInstType_0::SimdFloatSqrt            0      0.00%     85.30% # Number of instructions issued per FU type, per thread (Count)
system.cpu.statIssuedInstType_0::SimdReduceAdd            0      0.00%     85.30% # Number of instructions issued per FU type, per thread (Count)
system.cpu.statIssuedInstType_0::SimdReduceAlu            0      0.00%     85.30% # Number of instructions issued per FU type, per thread (Count)
system.cpu.statIssuedInstType_0::SimdReduceCmp            0      0.00%     85.30% # Number of instructions issued per FU type, per thread (Count)
system.cpu.statIssuedInstType_0::SimdFloatReduceAdd            0      0.00%     85.30% # Number of instructions issued per FU type, per thread (Count)
system.cpu.statIssuedInstType_0::SimdFloatReduceCmp            0      0.00%     85.30% # Number of instructions issued per FU type, per thread (Count)
system.cpu.statIssuedInstType_0::SimdAes            0      0.00%     85.30% # Number of instructions issued per FU type, per thread (Count)
system.cpu.statIssuedInstType_0::SimdAesMix            0      0.00%     85.30% # Number of instructions issued per FU type, per thread (Count)
system.cpu.statIssuedInstType_0::SimdSha1Hash            0      0.00%     85.30% # Number of instructions issued per FU type, per thread (Count)
system.cpu.statIssuedInstType_0::SimdSha1Hash2            0      0.00%     85.30% # Number of instructions issued per FU type, per thread (Count)
system.cpu.statIssuedInstType_0::SimdSha256Hash            0      0.00%     85.30% # Number of instructions issued per FU type, per thread (Count)
system.cpu.statIssuedInstType_0::SimdSha256Hash2            0      0.00%     85.30% # Number of instructions issued per FU type, per thread (Count)
system.cpu.statIssuedInstType_0::SimdShaSigma2            0      0.00%     85.30% # Number of instructions issued per FU type, per thread (Count)
system.cpu.statIssuedInstType_0::SimdShaSigma3            0      0.00%     85.30% # Number of instructions issued per FU type, per thread (Count)
system.cpu.statIssuedInstType_0::SimdPredAlu            0      0.00%     85.30% # Number of instructions issued per FU type, per thread (Count)
system.cpu.statIssuedInstType_0::MemRead       459644      7.83%     93.13% # Number of instructions issued per FU type, per thread (Count)
system.cpu.statIssuedInstType_0::MemWrite       317074      5.40%     98.53% # Number of instructions issued per FU type, per thread (Count)
system.cpu.statIssuedInstType_0::FloatMemRead        44541      0.76%     99.29% # Number of instructions issued per FU type, per thread (Count)
system.cpu.statIssuedInstType_0::FloatMemWrite        41800      0.71%    100.00% # Number of instructions issued per FU type, per thread (Count)
system.cpu.statIssuedInstType_0::IprAccess            0      0.00%    100.00% # Number of instructions issued per FU type, per thread (Count)
system.cpu.statIssuedInstType_0::InstPrefetch            0      0.00%    100.00% # Number of instructions issued per FU type, per thread (Count)
system.cpu.statIssuedInstType_0::total        5870304                       # Number of instructions issued per FU type, per thread (Count)
system.cpu.issueRate                         3.248533                       # Inst issue rate ((Count/Cycle))
system.cpu.fuBusy                              201624                       # FU busy when requested (Count)
system.cpu.fuBusyRate                        0.034346                       # FU busy rate (busy events/executed inst) ((Count/Count))
system.cpu.intInstQueueReads                 13579676                       # Number of integer instruction queue reads (Count)
system.cpu.intInstQueueWrites                 7833727                       # Number of integer instruction queue writes (Count)
system.cpu.intInstQueueWakeupAccesses         5555736                       # Number of integer instruction queue wakeup accesses (Count)
system.cpu.fpInstQueueReads                    175994                       # Number of floating instruction queue reads (Count)
system.cpu.fpInstQueueWrites                   100025                       # Number of floating instruction queue writes (Count)
system.cpu.fpInstQueueWakeupAccesses            84303                       # Number of floating instruction queue wakeup accesses (Count)
system.cpu.vecInstQueueReads                        0                       # Number of vector instruction queue reads (Count)
system.cpu.vecInstQueueWrites                       0                       # Number of vector instruction queue writes (Count)
system.cpu.vecInstQueueWakeupAccesses               0                       # Number of vector instruction queue wakeup accesses (Count)
system.cpu.intAluAccesses                     5978086                       # Number of integer alu accesses (Count)
system.cpu.fpAluAccesses                        88146                       # Number of floating point alu accesses (Count)
system.cpu.vecAluAccesses                           0                       # Number of vector alu accesses (Count)
system.cpu.numInsts                           5695973                       # Number of executed instructions (Count)
system.cpu.numLoadInsts                        488691                       # Number of load instructions executed (Count)
system.cpu.numSquashedInsts                    174331                       # Number of squashed instructions skipped in execute (Count)
system.cpu.numSwp                                   0                       # Number of swp insts executed (Count)
system.cpu.numNop                                   0                       # Number of nop insts executed (Count)
system.cpu.numRefs                             833039                       # Number of memory reference insts executed (Count)
system.cpu.numBranches                         683465                       # Number of branches executed (Count)
system.cpu.numStoreInsts                       344348                       # Number of stores executed (Count)
system.cpu.numRate                           3.152061                       # Inst execution rate ((Count/Cycle))
system.cpu.timesIdled                             268                       # Number of times that the entire CPU went into an idle state and unscheduled itself (Count)
system.cpu.idleCycles                           10487                       # Total number of cycles that the CPU has spent unscheduled due to idling (Cycle)
system.cpu.committedInsts                     2574837                       # Number of Instructions Simulated (Count)
system.cpu.committedOps                       4298277                       # Number of Ops (including micro ops) Simulated (Count)
system.cpu.cpi                               0.701816                       # CPI: Cycles Per Instruction ((Cycle/Count))
system.cpu.totalCpi                          0.701816                       # CPI: Total CPI of All Threads ((Cycle/Count))
system.cpu.ipc                               1.424874                       # IPC: Instructions Per Cycle ((Count/Cycle))
system.cpu.totalIpc                          1.424874                       # IPC: Total IPC of All Threads ((Count/Cycle))
system.cpu.intRegfileReads                    7583727                       # Number of integer regfile reads (Count)
system.cpu.intRegfileWrites                   3967949                       # Number of integer regfile writes (Count)
system.cpu.fpRegfileReads                       44828                       # Number of floating regfile reads (Count)
system.cpu.fpRegfileWrites                      43735                       # Number of floating regfile writes (Count)
system.cpu.ccRegfileReads                     3274483                       # number of cc regfile reads (Count)
system.cpu.ccRegfileWrites                    2416052                       # number of cc regfile writes (Count)
system.cpu.miscRegfileReads                   2260125                       # number of misc regfile reads (Count)
system.cpu.miscRegfileWrites                        1                       # number of misc regfile writes (Count)
system.cpu.MemDepUnit__0.insertedLoads         514107                       # Number of loads inserted to the mem dependence unit. (Count)
system.cpu.MemDepUnit__0.insertedStores        378851                       # Number of stores inserted to the mem dependence unit. (Count)
system.cpu.MemDepUnit__0.conflictingLoads         2360                       # Number of conflicting loads. (Count)
system.cpu.MemDepUnit__0.conflictingStores        32015                       # Number of conflicting stores. (Count)
system.cpu.MemDepUnit__1.insertedLoads              0                       # Number of loads inserted to the mem dependence unit. (Count)
system.cpu.MemDepUnit__1.insertedStores             0                       # Number of stores inserted to the mem dependence unit. (Count)
system.cpu.MemDepUnit__1.conflictingLoads            0                       # Number of conflicting loads. (Count)
system.cpu.MemDepUnit__1.conflictingStores            0                       # Number of conflicting stores. (Count)
system.cpu.MemDepUnit__2.insertedLoads              0                       # Number of loads inserted to the mem dependence unit. (Count)
system.cpu.MemDepUnit__2.insertedStores             0                       # Number of stores inserted to the mem dependence unit. (Count)
system.cpu.MemDepUnit__2.conflictingLoads            0                       # Number of conflicting loads. (Count)
system.cpu.MemDepUnit__2.conflictingStores            0                       # Number of conflicting stores. (Count)
system.cpu.MemDepUnit__3.insertedLoads              0                       # Number of loads inserted to the mem dependence unit. (Count)
system.cpu.MemDepUnit__3.insertedStores             0                       # Number of stores inserted to the mem dependence unit. (Count)
system.cpu.MemDepUnit__3.conflictingLoads            0                       # Number of conflicting loads. (Count)
system.cpu.MemDepUnit__3.conflictingStores            0                       # Number of conflicting stores. (Count)
system.cpu.branchPred.lookups                  933183                       # Number of BP lookups (Count)
system.cpu.branchPred.condPredicted            793068                       # Number of conditional branches predicted (Count)
system.cpu.branchPred.condIncorrect             59118                       # Number of conditional branches incorrect (Count)
system.cpu.branchPred.BTBLookups               321716                       # Number of BTB lookups (Count)
system.cpu.branchPred.BTBUpdates                32616                       # Number of BTB updates (Count)
system.cpu.branchPred.BTBHits                  320932                       # Number of BTB hits (Count)
system.cpu.branchPred.BTBHitRatio            0.997563                       # BTB Hit Ratio (Ratio)
system.cpu.branchPred.RASUsed                    9497                       # Number of times the RAS was used to get a target. (Count)
system.cpu.branchPred.RASIncorrect                  1                       # Number of incorrect RAS predictions. (Count)
system.cpu.branchPred.indirectLookups             300                       # Number of indirect predictor lookups. (Count)
system.cpu.branchPred.indirectHits                 11                       # Number of indirect target hits. (Count)
system.cpu.branchPred.indirectMisses              289                       # Number of indirect misses. (Count)
system.cpu.branchPred.indirectMispredicted           84                       # Number of mispredicted indirect branches. (Count)
system.cpu.commit.commitSquashedInsts         1817577                       # The number of squashed insts skipped by commit (Count)
system.cpu.commit.commitNonSpecStalls               1                       # The number of times commit has been forced to stall to communicate backwards (Count)
system.cpu.commit.branchMispredicts             58921                       # The number of times a branch was mispredicted (Count)
system.cpu.commit.numCommittedDist::samples      1544142                       # Number of insts commited each cycle (Count)
system.cpu.commit.numCommittedDist::mean     2.783602                       # Number of insts commited each cycle (Count)
system.cpu.commit.numCommittedDist::stdev     2.962164                       # Number of insts commited each cycle (Count)
system.cpu.commit.numCommittedDist::underflows            0      0.00%      0.00% # Number of insts commited each cycle (Count)
system.cpu.commit.numCommittedDist::0          506020     32.77%     32.77% # Number of insts commited each cycle (Count)
system.cpu.commit.numCommittedDist::1          232669     15.07%     47.84% # Number of insts commited each cycle (Count)
system.cpu.commit.numCommittedDist::2          161860     10.48%     58.32% # Number of insts commited each cycle (Count)
system.cpu.commit.numCommittedDist::3          143847      9.32%     67.64% # Number of insts commited each cycle (Count)
system.cpu.commit.numCommittedDist::4          116691      7.56%     75.19% # Number of insts commited each cycle (Count)
system.cpu.commit.numCommittedDist::5           35092      2.27%     77.47% # Number of insts commited each cycle (Count)
system.cpu.commit.numCommittedDist::6           29312      1.90%     79.36% # Number of insts commited each cycle (Count)
system.cpu.commit.numCommittedDist::7           56957      3.69%     83.05% # Number of insts commited each cycle (Count)
system.cpu.commit.numCommittedDist::8          261694     16.95%    100.00% # Number of insts commited each cycle (Count)
system.cpu.commit.numCommittedDist::overflows            0      0.00%    100.00% # Number of insts commited each cycle (Count)
system.cpu.commit.numCommittedDist::min_value            0                       # Number of insts commited each cycle (Count)
system.cpu.commit.numCommittedDist::max_value            8                       # Number of insts commited each cycle (Count)
system.cpu.commit.numCommittedDist::total      1544142                       # Number of insts commited each cycle (Count)
system.cpu.commit.instsCommitted              2574837                       # Number of instructions committed (Count)
system.cpu.commit.opsCommitted                4298277                       # Number of ops (including micro ops) committed (Count)
system.cpu.commit.memRefs                      663827                       # Number of memory references committed (Count)
system.cpu.commit.loads                        379876                       # Number of loads committed (Count)
system.cpu.commit.amos                              0                       # Number of atomic instructions committed (Count)
system.cpu.commit.membars                           0                       # Number of memory barriers committed (Count)
system.cpu.commit.branches                     522063                       # Number of branches committed (Count)
system.cpu.commit.vectorInstructions                0                       # Number of committed Vector instructions. (Count)
system.cpu.commit.floating                      83881                       # Number of committed floating point instructions. (Count)
system.cpu.commit.integer                     4291260                       # Number of committed integer instructions. (Count)
system.cpu.commit.functionCalls                  8318                       # Number of function calls committed. (Count)
system.cpu.commit.committedInstType_0::No_OpClass         5501      0.13%      0.13% # Class of committed instruction (Count)
system.cpu.commit.committedInstType_0::IntAlu      3627963     84.41%     84.53% # Class of committed instruction (Count)
system.cpu.commit.committedInstType_0::IntMult            4      0.00%     84.53% # Class of committed instruction (Count)
system.cpu.commit.committedInstType_0::IntDiv           14      0.00%     84.53% # Class of committed instruction (Count)
system.cpu.commit.committedInstType_0::FloatAdd           10      0.00%     84.53% # Class of committed instruction (Count)
system.cpu.commit.committedInstType_0::FloatCmp            0      0.00%     84.53% # Class of committed instruction (Count)
system.cpu.commit.committedInstType_0::FloatCvt            0      0.00%     84.53% # Class of committed instruction (Count)
system.cpu.commit.committedInstType_0::FloatMult            0      0.00%     84.53% # Class of committed instruction (Count)
system.cpu.commit.committedInstType_0::FloatMultAcc            0      0.00%     84.53% # Class of committed instruction (Count)
system.cpu.commit.committedInstType_0::FloatDiv            0      0.00%     84.53% # Class of committed instruction (Count)
system.cpu.commit.committedInstType_0::FloatMisc            0      0.00%     84.53% # Class of committed instruction (Count)
system.cpu.commit.committedInstType_0::FloatSqrt            0      0.00%     84.53% # Class of committed instruction (Count)
system.cpu.commit.committedInstType_0::SimdAdd          374      0.01%     84.54% # Class of committed instruction (Count)
system.cpu.commit.committedInstType_0::SimdAddAcc            0      0.00%     84.54% # Class of committed instruction (Count)
system.cpu.commit.committedInstType_0::SimdAlu           76      0.00%     84.54% # Class of committed instruction (Count)
system.cpu.commit.committedInstType_0::SimdCmp            0      0.00%     84.54% # Class of committed instruction (Count)
system.cpu.commit.committedInstType_0::SimdCvt          110      0.00%     84.55% # Class of committed instruction (Count)
system.cpu.commit.committedInstType_0::SimdMisc          212      0.00%     84.55% # Class of committed instruction (Count)
system.cpu.commit.committedInstType_0::SimdMult            0      0.00%     84.55% # Class of committed instruction (Count)
system.cpu.commit.committedInstType_0::SimdMultAcc            0      0.00%     84.55% # Class of committed instruction (Count)
system.cpu.commit.committedInstType_0::SimdShift          186      0.00%     84.56% # Class of committed instruction (Count)
system.cpu.commit.committedInstType_0::SimdShiftAcc            0      0.00%     84.56% # Class of committed instruction (Count)
system.cpu.commit.committedInstType_0::SimdDiv            0      0.00%     84.56% # Class of committed instruction (Count)
system.cpu.commit.committedInstType_0::SimdSqrt            0      0.00%     84.56% # Class of committed instruction (Count)
system.cpu.commit.committedInstType_0::SimdFloatAdd            0      0.00%     84.56% # Class of committed instruction (Count)
system.cpu.commit.committedInstType_0::SimdFloatAlu            0      0.00%     84.56% # Class of committed instruction (Count)
system.cpu.commit.committedInstType_0::SimdFloatCmp            0      0.00%     84.56% # Class of committed instruction (Count)
system.cpu.commit.committedInstType_0::SimdFloatCvt            0      0.00%     84.56% # Class of committed instruction (Count)
system.cpu.commit.committedInstType_0::SimdFloatDiv            0      0.00%     84.56% # Class of committed instruction (Count)
system.cpu.commit.committedInstType_0::SimdFloatMisc            0      0.00%     84.56% # Class of committed instruction (Count)
system.cpu.commit.committedInstType_0::SimdFloatMult            0      0.00%     84.56% # Class of committed instruction (Count)
system.cpu.commit.committedInstType_0::SimdFloatMultAcc            0      0.00%     84.56% # Class of committed instruction (Count)
system.cpu.commit.committedInstType_0::SimdFloatSqrt            0      0.00%     84.56% # Class of committed instruction (Count)
system.cpu.commit.committedInstType_0::SimdReduceAdd            0      0.00%     84.56% # Class of committed instruction (Count)
system.cpu.commit.committedInstType_0::SimdReduceAlu            0      0.00%     84.56% # Class of committed instruction (Count)
system.cpu.commit.committedInstType_0::SimdReduceCmp            0      0.00%     84.56% # Class of committed instruction (Count)
system.cpu.commit.committedInstType_0::SimdFloatReduceAdd            0      0.00%     84.56% # Class of committed instruction (Count)
system.cpu.commit.committedInstType_0::SimdFloatReduceCmp            0      0.00%     84.56% # Class of committed instruction (Count)
system.cpu.commit.committedInstType_0::SimdAes            0      0.00%     84.56% # Class of committed instruction (Count)
system.cpu.commit.committedInstType_0::SimdAesMix            0      0.00%     84.56% # Class of committed instruction (Count)
system.cpu.commit.committedInstType_0::SimdSha1Hash            0      0.00%     84.56% # Class of committed instruction (Count)
system.cpu.commit.committedInstType_0::SimdSha1Hash2            0      0.00%     84.56% # Class of committed instruction (Count)
system.cpu.commit.committedInstType_0::SimdSha256Hash            0      0.00%     84.56% # Class of committed instruction (Count)
system.cpu.commit.committedInstType_0::SimdSha256Hash2            0      0.00%     84.56% # Class of committed instruction (Count)
system.cpu.commit.committedInstType_0::SimdShaSigma2            0      0.00%     84.56% # Class of committed instruction (Count)
system.cpu.commit.committedInstType_0::SimdShaSigma3            0      0.00%     84.56% # Class of committed instruction (Count)
system.cpu.commit.committedInstType_0::SimdPredAlu            0      0.00%     84.56% # Class of committed instruction (Count)
system.cpu.commit.committedInstType_0::MemRead       338862      7.88%     92.44% # Class of committed instruction (Count)
system.cpu.commit.committedInstType_0::MemWrite       242564      5.64%     98.08% # Class of committed instruction (Count)
system.cpu.commit.committedInstType_0::FloatMemRead        41014      0.95%     99.04% # Class of committed instruction (Count)
system.cpu.commit.committedInstType_0::FloatMemWrite        41387      0.96%    100.00% # Class of committed instruction (Count)
system.cpu.commit.committedInstType_0::IprAccess            0      0.00%    100.00% # Class of committed instruction (Count)
system.cpu.commit.committedInstType_0::InstPrefetch            0      0.00%    100.00% # Class of committed instruction (Count)
system.cpu.commit.committedInstType_0::total      4298277                       # Class of committed instruction (Count)
system.cpu.commit.commitEligibleSamples        261694                       # number cycles where commit BW limit reached (Cycle)
system.cpu.dcache.demandHits::cpu.data         741967                       # number of demand (read+write) hits (Count)
system.cpu.dcache.demandHits::total            741967                       # number of demand (read+write) hits (Count)
system.cpu.dcache.overallHits::cpu.data        741967                       # number of overall hits (Count)
system.cpu.dcache.overallHits::total           741967                       # number of overall hits (Count)
system.cpu.dcache.demandMisses::cpu.data         2194                       # number of demand (read+write) misses (Count)
system.cpu.dcache.demandMisses::total            2194                       # number of demand (read+write) misses (Count)
system.cpu.dcache.overallMisses::cpu.data         2194                       # number of overall misses (Count)
system.cpu.dcache.overallMisses::total           2194                       # number of overall misses (Count)
system.cpu.dcache.demandMissLatency::cpu.data    125342999                       # number of demand (read+write) miss ticks (Tick)
system.cpu.dcache.demandMissLatency::total    125342999                       # number of demand (read+write) miss ticks (Tick)
system.cpu.dcache.overallMissLatency::cpu.data    125342999                       # number of overall miss ticks (Tick)
system.cpu.dcache.overallMissLatency::total    125342999                       # number of overall miss ticks (Tick)
system.cpu.dcache.demandAccesses::cpu.data       744161                       # number of demand (read+write) accesses (Count)
system.cpu.dcache.demandAccesses::total        744161                       # number of demand (read+write) accesses (Count)
system.cpu.dcache.overallAccesses::cpu.data       744161                       # number of overall (read+write) accesses (Count)
system.cpu.dcache.overallAccesses::total       744161                       # number of overall (read+write) accesses (Count)
system.cpu.dcache.demandMissRate::cpu.data     0.002948                       # miss rate for demand accesses (Ratio)
system.cpu.dcache.demandMissRate::total      0.002948                       # miss rate for demand accesses (Ratio)
system.cpu.dcache.overallMissRate::cpu.data     0.002948                       # miss rate for overall accesses (Ratio)
system.cpu.dcache.overallMissRate::total     0.002948                       # miss rate for overall accesses (Ratio)
system.cpu.dcache.demandAvgMissLatency::cpu.data 57129.899271                       # average overall miss latency in ticks ((Tick/Count))
system.cpu.dcache.demandAvgMissLatency::total 57129.899271                       # average overall miss latency in ticks ((Tick/Count))
system.cpu.dcache.overallAvgMissLatency::cpu.data 57129.899271                       # average overall miss latency ((Tick/Count))
system.cpu.dcache.overallAvgMissLatency::total 57129.899271                       # average overall miss latency ((Tick/Count))
system.cpu.dcache.blockedCycles::no_mshrs          305                       # number of cycles access was blocked (Cycle)
system.cpu.dcache.blockedCycles::no_targets            0                       # number of cycles access was blocked (Cycle)
system.cpu.dcache.blockedCauses::no_mshrs           11                       # number of times access was blocked (Count)
system.cpu.dcache.blockedCauses::no_targets            0                       # number of times access was blocked (Count)
system.cpu.dcache.avgBlocked::no_mshrs      27.727273                       # average number of cycles each access was blocked ((Cycle/Count))
system.cpu.dcache.avgBlocked::no_targets          nan                       # average number of cycles each access was blocked ((Cycle/Count))
system.cpu.dcache.writebacks::writebacks          180                       # number of writebacks (Count)
system.cpu.dcache.writebacks::total               180                       # number of writebacks (Count)
system.cpu.dcache.demandMshrHits::cpu.data          917                       # number of demand (read+write) MSHR hits (Count)
system.cpu.dcache.demandMshrHits::total           917                       # number of demand (read+write) MSHR hits (Count)
system.cpu.dcache.overallMshrHits::cpu.data          917                       # number of overall MSHR hits (Count)
system.cpu.dcache.overallMshrHits::total          917                       # number of overall MSHR hits (Count)
system.cpu.dcache.demandMshrMisses::cpu.data         1277                       # number of demand (read+write) MSHR misses (Count)
system.cpu.dcache.demandMshrMisses::total         1277                       # number of demand (read+write) MSHR misses (Count)
system.cpu.dcache.overallMshrMisses::cpu.data         1277                       # number of overall MSHR misses (Count)
system.cpu.dcache.overallMshrMisses::total         1277                       # number of overall MSHR misses (Count)
system.cpu.dcache.demandMshrMissLatency::cpu.data     78676999                       # number of demand (read+write) MSHR miss ticks (Tick)
system.cpu.dcache.demandMshrMissLatency::total     78676999                       # number of demand (read+write) MSHR miss ticks (Tick)
system.cpu.dcache.overallMshrMissLatency::cpu.data     78676999                       # number of overall MSHR miss ticks (Tick)
system.cpu.dcache.overallMshrMissLatency::total     78676999                       # number of overall MSHR miss ticks (Tick)
system.cpu.dcache.demandMshrMissRate::cpu.data     0.001716                       # mshr miss ratio for demand accesses (Ratio)
system.cpu.dcache.demandMshrMissRate::total     0.001716                       # mshr miss ratio for demand accesses (Ratio)
system.cpu.dcache.overallMshrMissRate::cpu.data     0.001716                       # mshr miss ratio for overall accesses (Ratio)
system.cpu.dcache.overallMshrMissRate::total     0.001716                       # mshr miss ratio for overall accesses (Ratio)
system.cpu.dcache.demandAvgMshrMissLatency::cpu.data 61610.805795                       # average overall mshr miss latency ((Tick/Count))
system.cpu.dcache.demandAvgMshrMissLatency::total 61610.805795                       # average overall mshr miss latency ((Tick/Count))
system.cpu.dcache.overallAvgMshrMissLatency::cpu.data 61610.805795                       # average overall mshr miss latency ((Tick/Count))
system.cpu.dcache.overallAvgMshrMissLatency::total 61610.805795                       # average overall mshr miss latency ((Tick/Count))
system.cpu.dcache.replacements                    253                       # number of replacements (Count)
system.cpu.dcache.ReadReq.hits::cpu.data       458647                       # number of ReadReq hits (Count)
system.cpu.dcache.ReadReq.hits::total          458647                       # number of ReadReq hits (Count)
system.cpu.dcache.ReadReq.misses::cpu.data         1562                       # number of ReadReq misses (Count)
system.cpu.dcache.ReadReq.misses::total          1562                       # number of ReadReq misses (Count)
system.cpu.dcache.ReadReq.missLatency::cpu.data     86666000                       # number of ReadReq miss ticks (Tick)
system.cpu.dcache.ReadReq.missLatency::total     86666000                       # number of ReadReq miss ticks (Tick)
system.cpu.dcache.ReadReq.accesses::cpu.data       460209                       # number of ReadReq accesses(hits+misses) (Count)
system.cpu.dcache.ReadReq.accesses::total       460209                       # number of ReadReq accesses(hits+misses) (Count)
system.cpu.dcache.ReadReq.missRate::cpu.data     0.003394                       # miss rate for ReadReq accesses (Ratio)
system.cpu.dcache.ReadReq.missRate::total     0.003394                       # miss rate for ReadReq accesses (Ratio)
system.cpu.dcache.ReadReq.avgMissLatency::cpu.data 55483.994878                       # average ReadReq miss latency ((Tick/Count))
system.cpu.dcache.ReadReq.avgMissLatency::total 55483.994878                       # average ReadReq miss latency ((Tick/Count))
system.cpu.dcache.ReadReq.mshrHits::cpu.data          916                       # number of ReadReq MSHR hits (Count)
system.cpu.dcache.ReadReq.mshrHits::total          916                       # number of ReadReq MSHR hits (Count)
system.cpu.dcache.ReadReq.mshrMisses::cpu.data          646                       # number of ReadReq MSHR misses (Count)
system.cpu.dcache.ReadReq.mshrMisses::total          646                       # number of ReadReq MSHR misses (Count)
system.cpu.dcache.ReadReq.mshrMissLatency::cpu.data     41319000                       # number of ReadReq MSHR miss ticks (Tick)
system.cpu.dcache.ReadReq.mshrMissLatency::total     41319000                       # number of ReadReq MSHR miss ticks (Tick)
system.cpu.dcache.ReadReq.mshrMissRate::cpu.data     0.001404                       # mshr miss rate for ReadReq accesses (Ratio)
system.cpu.dcache.ReadReq.mshrMissRate::total     0.001404                       # mshr miss rate for ReadReq accesses (Ratio)
system.cpu.dcache.ReadReq.avgMshrMissLatency::cpu.data 63961.300310                       # average ReadReq mshr miss latency ((Tick/Count))
system.cpu.dcache.ReadReq.avgMshrMissLatency::total 63961.300310                       # average ReadReq mshr miss latency ((Tick/Count))
system.cpu.dcache.WriteReq.hits::cpu.data       283320                       # number of WriteReq hits (Count)
system.cpu.dcache.WriteReq.hits::total         283320                       # number of WriteReq hits (Count)
system.cpu.dcache.WriteReq.misses::cpu.data          632                       # number of WriteReq misses (Count)
system.cpu.dcache.WriteReq.misses::total          632                       # number of WriteReq misses (Count)
system.cpu.dcache.WriteReq.missLatency::cpu.data     38676999                       # number of WriteReq miss ticks (Tick)
system.cpu.dcache.WriteReq.missLatency::total     38676999                       # number of WriteReq miss ticks (Tick)
system.cpu.dcache.WriteReq.accesses::cpu.data       283952                       # number of WriteReq accesses(hits+misses) (Count)
system.cpu.dcache.WriteReq.accesses::total       283952                       # number of WriteReq accesses(hits+misses) (Count)
system.cpu.dcache.WriteReq.missRate::cpu.data     0.002226                       # miss rate for WriteReq accesses (Ratio)
system.cpu.dcache.WriteReq.missRate::total     0.002226                       # miss rate for WriteReq accesses (Ratio)
system.cpu.dcache.WriteReq.avgMissLatency::cpu.data 61197.783228                       # average WriteReq miss latency ((Tick/Count))
system.cpu.dcache.WriteReq.avgMissLatency::total 61197.783228                       # average WriteReq miss latency ((Tick/Count))
system.cpu.dcache.WriteReq.mshrHits::cpu.data            1                       # number of WriteReq MSHR hits (Count)
system.cpu.dcache.WriteReq.mshrHits::total            1                       # number of WriteReq MSHR hits (Count)
system.cpu.dcache.WriteReq.mshrMisses::cpu.data          631                       # number of WriteReq MSHR misses (Count)
system.cpu.dcache.WriteReq.mshrMisses::total          631                       # number of WriteReq MSHR misses (Count)
system.cpu.dcache.WriteReq.mshrMissLatency::cpu.data     37357999                       # number of WriteReq MSHR miss ticks (Tick)
system.cpu.dcache.WriteReq.mshrMissLatency::total     37357999                       # number of WriteReq MSHR miss ticks (Tick)
system.cpu.dcache.WriteReq.mshrMissRate::cpu.data     0.002222                       # mshr miss rate for WriteReq accesses (Ratio)
system.cpu.dcache.WriteReq.mshrMissRate::total     0.002222                       # mshr miss rate for WriteReq accesses (Ratio)
system.cpu.dcache.WriteReq.avgMshrMissLatency::cpu.data 59204.435816                       # average WriteReq mshr miss latency ((Tick/Count))
system.cpu.dcache.WriteReq.avgMshrMissLatency::total 59204.435816                       # average WriteReq mshr miss latency ((Tick/Count))
system.cpu.dcache.power_state.pwrStateResidencyTicks::UNDEFINED   1807062000                       # Cumulative time (in ticks) in various power states (Tick)
system.cpu.dcache.tags.tagsInUse           689.246621                       # Average ticks per tags in use ((Tick/Count))
system.cpu.dcache.tags.totalRefs               743244                       # Total number of references to valid blocks. (Count)
system.cpu.dcache.tags.sampledRefs               1277                       # Sample count of references to valid blocks. (Count)
system.cpu.dcache.tags.avgRefs             582.023493                       # Average number of references to valid blocks. ((Count/Count))
system.cpu.dcache.tags.warmupTick              150000                       # The tick when the warmup percentage was hit. (Tick)
system.cpu.dcache.tags.occupancies::cpu.data   689.246621                       # Average occupied blocks per tick, per requestor ((Count/Tick))
system.cpu.dcache.tags.avgOccs::cpu.data     0.673092                       # Average percentage of cache occupancy ((Ratio/Tick))
system.cpu.dcache.tags.avgOccs::total        0.673092                       # Average percentage of cache occupancy ((Ratio/Tick))
system.cpu.dcache.tags.occupanciesTaskId::1024         1024                       # Occupied blocks per task id (Count)
system.cpu.dcache.tags.ageTaskId_1024::0           35                       # Occupied blocks per task id, per block age (Count)
system.cpu.dcache.tags.ageTaskId_1024::1            7                       # Occupied blocks per task id, per block age (Count)
system.cpu.dcache.tags.ageTaskId_1024::2          481                       # Occupied blocks per task id, per block age (Count)
system.cpu.dcache.tags.ageTaskId_1024::3          501                       # Occupied blocks per task id, per block age (Count)
system.cpu.dcache.tags.ratioOccsTaskId::1024            1                       # Ratio of occupied blocks and all blocks, per task id (Ratio)
system.cpu.dcache.tags.tagAccesses            1489599                       # Number of tag accesses (Count)
system.cpu.dcache.tags.dataAccesses           1489599                       # Number of data accesses (Count)
system.cpu.dcache.tags.power_state.pwrStateResidencyTicks::UNDEFINED   1807062000                       # Cumulative time (in ticks) in various power states (Tick)
system.cpu.decode.idleCycles                   442947                       # Number of cycles decode is idle (Cycle)
system.cpu.decode.blockedCycles                236743                       # Number of cycles decode is blocked (Cycle)
system.cpu.decode.runCycles                    972879                       # Number of cycles decode is running (Cycle)
system.cpu.decode.unblockCycles                 85065                       # Number of cycles decode is unblocking (Cycle)
system.cpu.decode.squashCycles                  58942                       # Number of cycles decode is squashing (Cycle)
system.cpu.decode.branchResolved               308236                       # Number of times decode resolved a branch (Count)
system.cpu.decode.branchMispred                   240                       # Number of times decode detected a branch misprediction (Count)
system.cpu.decode.decodedInsts                6904789                       # Number of instructions handled by decode (Count)
system.cpu.decode.squashedInsts                  1092                       # Number of squashed instructions handled by decode (Count)
system.cpu.dtb_walker_cache.blockedCycles::no_mshrs            0                       # number of cycles access was blocked (Cycle)
system.cpu.dtb_walker_cache.blockedCycles::no_targets            0                       # number of cycles access was blocked (Cycle)
system.cpu.dtb_walker_cache.blockedCauses::no_mshrs            0                       # number of times access was blocked (Count)
system.cpu.dtb_walker_cache.blockedCauses::no_targets            0                       # number of times access was blocked (Count)
system.cpu.dtb_walker_cache.avgBlocked::no_mshrs          nan                       # average number of cycles each access was blocked ((Cycle/Count))
system.cpu.dtb_walker_cache.avgBlocked::no_targets          nan                       # average number of cycles each access was blocked ((Cycle/Count))
system.cpu.dtb_walker_cache.replacements            0                       # number of replacements (Count)
system.cpu.dtb_walker_cache.power_state.pwrStateResidencyTicks::UNDEFINED   1807062000                       # Cumulative time (in ticks) in various power states (Tick)
system.cpu.dtb_walker_cache.tags.tagsInUse            0                       # Average ticks per tags in use ((Tick/Count))
system.cpu.dtb_walker_cache.tags.totalRefs            0                       # Total number of references to valid blocks. (Count)
system.cpu.dtb_walker_cache.tags.sampledRefs            0                       # Sample count of references to valid blocks. (Count)
system.cpu.dtb_walker_cache.tags.avgRefs          nan                       # Average number of references to valid blocks. ((Count/Count))
system.cpu.dtb_walker_cache.tags.warmupTick            0                       # The tick when the warmup percentage was hit. (Tick)
system.cpu.dtb_walker_cache.tags.tagAccesses            0                       # Number of tag accesses (Count)
system.cpu.dtb_walker_cache.tags.dataAccesses            0                       # Number of data accesses (Count)
system.cpu.dtb_walker_cache.tags.power_state.pwrStateResidencyTicks::UNDEFINED   1807062000                       # Cumulative time (in ticks) in various power states (Tick)
system.cpu.fetch.icacheStallCycles             513867                       # Number of cycles fetch is stalled on an Icache miss (Cycle)
system.cpu.fetch.insts                        4308297                       # Number of instructions fetch has processed (Count)
system.cpu.fetch.branches                      933183                       # Number of branches that fetch encountered (Count)
system.cpu.fetch.predictedBranches             330440                       # Number of branches that fetch has predicted taken (Count)
system.cpu.fetch.cycles                       1223177                       # Number of cycles fetch has run and was not squashing or blocked (Cycle)
system.cpu.fetch.squashCycles                  118362                       # Number of cycles fetch has spent squashing (Cycle)
system.cpu.fetch.miscStallCycles                   57                       # Number of cycles fetch has spent waiting on interrupts, or bad addresses, or out of MSHRs (Cycle)
system.cpu.fetch.pendingTrapStallCycles           294                       # Number of stall cycles due to pending traps (Cycle)
system.cpu.fetch.cacheLines                    483023                       # Number of cache lines fetched (Count)
system.cpu.fetch.icacheSquashes                 16174                       # Number of outstanding Icache misses that were squashed (Count)
system.cpu.fetch.nisnDist::samples            1796576                       # Number of instructions fetched each cycle (Total) (Count)
system.cpu.fetch.nisnDist::mean              4.001592                       # Number of instructions fetched each cycle (Total) (Count)
system.cpu.fetch.nisnDist::stdev             3.611852                       # Number of instructions fetched each cycle (Total) (Count)
system.cpu.fetch.nisnDist::underflows               0      0.00%      0.00% # Number of instructions fetched each cycle (Total) (Count)
system.cpu.fetch.nisnDist::0                   628295     34.97%     34.97% # Number of instructions fetched each cycle (Total) (Count)
system.cpu.fetch.nisnDist::1                   113415      6.31%     41.28% # Number of instructions fetched each cycle (Total) (Count)
system.cpu.fetch.nisnDist::2                    78537      4.37%     45.66% # Number of instructions fetched each cycle (Total) (Count)
system.cpu.fetch.nisnDist::3                    69738      3.88%     49.54% # Number of instructions fetched each cycle (Total) (Count)
system.cpu.fetch.nisnDist::4                    88569      4.93%     54.47% # Number of instructions fetched each cycle (Total) (Count)
system.cpu.fetch.nisnDist::5                    25522      1.42%     55.89% # Number of instructions fetched each cycle (Total) (Count)
system.cpu.fetch.nisnDist::6                    30643      1.71%     57.59% # Number of instructions fetched each cycle (Total) (Count)
system.cpu.fetch.nisnDist::7                    51138      2.85%     60.44% # Number of instructions fetched each cycle (Total) (Count)
system.cpu.fetch.nisnDist::8                   710719     39.56%    100.00% # Number of instructions fetched each cycle (Total) (Count)
system.cpu.fetch.nisnDist::overflows                0      0.00%    100.00% # Number of instructions fetched each cycle (Total) (Count)
system.cpu.fetch.nisnDist::min_value                0                       # Number of instructions fetched each cycle (Total) (Count)
system.cpu.fetch.nisnDist::max_value                8                       # Number of instructions fetched each cycle (Total) (Count)
system.cpu.fetch.nisnDist::total              1796576                       # Number of instructions fetched each cycle (Total) (Count)
system.cpu.fetch.branchRate                  0.516409                       # Number of branch fetches per cycle (Ratio)
system.cpu.fetch.rate                        2.384143                       # Number of inst fetches per cycle ((Count/Cycle))
system.cpu.icache.demandHits::cpu.inst         482424                       # number of demand (read+write) hits (Count)
system.cpu.icache.demandHits::total            482424                       # number of demand (read+write) hits (Count)
system.cpu.icache.overallHits::cpu.inst        482424                       # number of overall hits (Count)
system.cpu.icache.overallHits::total           482424                       # number of overall hits (Count)
system.cpu.icache.demandMisses::cpu.inst          598                       # number of demand (read+write) misses (Count)
system.cpu.icache.demandMisses::total             598                       # number of demand (read+write) misses (Count)
system.cpu.icache.overallMisses::cpu.inst          598                       # number of overall misses (Count)
system.cpu.icache.overallMisses::total            598                       # number of overall misses (Count)
system.cpu.icache.demandMissLatency::cpu.inst     37028000                       # number of demand (read+write) miss ticks (Tick)
system.cpu.icache.demandMissLatency::total     37028000                       # number of demand (read+write) miss ticks (Tick)
system.cpu.icache.overallMissLatency::cpu.inst     37028000                       # number of overall miss ticks (Tick)
system.cpu.icache.overallMissLatency::total     37028000                       # number of overall miss ticks (Tick)
system.cpu.icache.demandAccesses::cpu.inst       483022                       # number of demand (read+write) accesses (Count)
system.cpu.icache.demandAccesses::total        483022                       # number of demand (read+write) accesses (Count)
system.cpu.icache.overallAccesses::cpu.inst       483022                       # number of overall (read+write) accesses (Count)
system.cpu.icache.overallAccesses::total       483022                       # number of overall (read+write) accesses (Count)
system.cpu.icache.demandMissRate::cpu.inst     0.001238                       # miss rate for demand accesses (Ratio)
system.cpu.icache.demandMissRate::total      0.001238                       # miss rate for demand accesses (Ratio)
system.cpu.icache.overallMissRate::cpu.inst     0.001238                       # miss rate for overall accesses (Ratio)
system.cpu.icache.overallMissRate::total     0.001238                       # miss rate for overall accesses (Ratio)
system.cpu.icache.demandAvgMissLatency::cpu.inst 61919.732441                       # average overall miss latency in ticks ((Tick/Count))
system.cpu.icache.demandAvgMissLatency::total 61919.732441                       # average overall miss latency in ticks ((Tick/Count))
system.cpu.icache.overallAvgMissLatency::cpu.inst 61919.732441                       # average overall miss latency ((Tick/Count))
system.cpu.icache.overallAvgMissLatency::total 61919.732441                       # average overall miss latency ((Tick/Count))
system.cpu.icache.blockedCycles::no_mshrs          154                       # number of cycles access was blocked (Cycle)
system.cpu.icache.blockedCycles::no_targets            0                       # number of cycles access was blocked (Cycle)
system.cpu.icache.blockedCauses::no_mshrs            4                       # number of times access was blocked (Count)
system.cpu.icache.blockedCauses::no_targets            0                       # number of times access was blocked (Count)
system.cpu.icache.avgBlocked::no_mshrs      38.500000                       # average number of cycles each access was blocked ((Cycle/Count))
system.cpu.icache.avgBlocked::no_targets          nan                       # average number of cycles each access was blocked ((Cycle/Count))
system.cpu.icache.writebacks::writebacks          225                       # number of writebacks (Count)
system.cpu.icache.writebacks::total               225                       # number of writebacks (Count)
system.cpu.icache.demandMshrHits::cpu.inst          130                       # number of demand (read+write) MSHR hits (Count)
system.cpu.icache.demandMshrHits::total           130                       # number of demand (read+write) MSHR hits (Count)
system.cpu.icache.overallMshrHits::cpu.inst          130                       # number of overall MSHR hits (Count)
system.cpu.icache.overallMshrHits::total          130                       # number of overall MSHR hits (Count)
system.cpu.icache.demandMshrMisses::cpu.inst          468                       # number of demand (read+write) MSHR misses (Count)
system.cpu.icache.demandMshrMisses::total          468                       # number of demand (read+write) MSHR misses (Count)
system.cpu.icache.overallMshrMisses::cpu.inst          468                       # number of overall MSHR misses (Count)
system.cpu.icache.overallMshrMisses::total          468                       # number of overall MSHR misses (Count)
system.cpu.icache.demandMshrMissLatency::cpu.inst     29721000                       # number of demand (read+write) MSHR miss ticks (Tick)
system.cpu.icache.demandMshrMissLatency::total     29721000                       # number of demand (read+write) MSHR miss ticks (Tick)
system.cpu.icache.overallMshrMissLatency::cpu.inst     29721000                       # number of overall MSHR miss ticks (Tick)
system.cpu.icache.overallMshrMissLatency::total     29721000                       # number of overall MSHR miss ticks (Tick)
system.cpu.icache.demandMshrMissRate::cpu.inst     0.000969                       # mshr miss ratio for demand accesses (Ratio)
system.cpu.icache.demandMshrMissRate::total     0.000969                       # mshr miss ratio for demand accesses (Ratio)
system.cpu.icache.overallMshrMissRate::cpu.inst     0.000969                       # mshr miss ratio for overall accesses (Ratio)
system.cpu.icache.overallMshrMissRate::total     0.000969                       # mshr miss ratio for overall accesses (Ratio)
system.cpu.icache.demandAvgMshrMissLatency::cpu.inst 63506.410256                       # average overall mshr miss latency ((Tick/Count))
system.cpu.icache.demandAvgMshrMissLatency::total 63506.410256                       # average overall mshr miss latency ((Tick/Count))
system.cpu.icache.overallAvgMshrMissLatency::cpu.inst 63506.410256                       # average overall mshr miss latency ((Tick/Count))
system.cpu.icache.overallAvgMshrMissLatency::total 63506.410256                       # average overall mshr miss latency ((Tick/Count))
system.cpu.icache.replacements                    225                       # number of replacements (Count)
system.cpu.icache.ReadReq.hits::cpu.inst       482424                       # number of ReadReq hits (Count)
system.cpu.icache.ReadReq.hits::total          482424                       # number of ReadReq hits (Count)
system.cpu.icache.ReadReq.misses::cpu.inst          598                       # number of ReadReq misses (Count)
system.cpu.icache.ReadReq.misses::total           598                       # number of ReadReq misses (Count)
system.cpu.icache.ReadReq.missLatency::cpu.inst     37028000                       # number of ReadReq miss ticks (Tick)
system.cpu.icache.ReadReq.missLatency::total     37028000                       # number of ReadReq miss ticks (Tick)
system.cpu.icache.ReadReq.accesses::cpu.inst       483022                       # number of ReadReq accesses(hits+misses) (Count)
system.cpu.icache.ReadReq.accesses::total       483022                       # number of ReadReq accesses(hits+misses) (Count)
system.cpu.icache.ReadReq.missRate::cpu.inst     0.001238                       # miss rate for ReadReq accesses (Ratio)
system.cpu.icache.ReadReq.missRate::total     0.001238                       # miss rate for ReadReq accesses (Ratio)
system.cpu.icache.ReadReq.avgMissLatency::cpu.inst 61919.732441                       # average ReadReq miss latency ((Tick/Count))
system.cpu.icache.ReadReq.avgMissLatency::total 61919.732441                       # average ReadReq miss latency ((Tick/Count))
system.cpu.icache.ReadReq.mshrHits::cpu.inst          130                       # number of ReadReq MSHR hits (Count)
system.cpu.icache.ReadReq.mshrHits::total          130                       # number of ReadReq MSHR hits (Count)
system.cpu.icache.ReadReq.mshrMisses::cpu.inst          468                       # number of ReadReq MSHR misses (Count)
system.cpu.icache.ReadReq.mshrMisses::total          468                       # number of ReadReq MSHR misses (Count)
system.cpu.icache.ReadReq.mshrMissLatency::cpu.inst     29721000                       # number of ReadReq MSHR miss ticks (Tick)
system.cpu.icache.ReadReq.mshrMissLatency::total     29721000                       # number of ReadReq MSHR miss ticks (Tick)
system.cpu.icache.ReadReq.mshrMissRate::cpu.inst     0.000969                       # mshr miss rate for ReadReq accesses (Ratio)
system.cpu.icache.ReadReq.mshrMissRate::total     0.000969                       # mshr miss rate for ReadReq accesses (Ratio)
system.cpu.icache.ReadReq.avgMshrMissLatency::cpu.inst 63506.410256                       # average ReadReq mshr miss latency ((Tick/Count))
system.cpu.icache.ReadReq.avgMshrMissLatency::total 63506.410256                       # average ReadReq mshr miss latency ((Tick/Count))
system.cpu.icache.power_state.pwrStateResidencyTicks::UNDEFINED   1807062000                       # Cumulative time (in ticks) in various power states (Tick)
system.cpu.icache.tags.tagsInUse           236.619559                       # Average ticks per tags in use ((Tick/Count))
system.cpu.icache.tags.totalRefs               482892                       # Total number of references to valid blocks. (Count)
system.cpu.icache.tags.sampledRefs                468                       # Sample count of references to valid blocks. (Count)
system.cpu.icache.tags.avgRefs            1031.820513                       # Average number of references to valid blocks. ((Count/Count))
system.cpu.icache.tags.warmupTick               77000                       # The tick when the warmup percentage was hit. (Tick)
system.cpu.icache.tags.occupancies::cpu.inst   236.619559                       # Average occupied blocks per tick, per requestor ((Count/Tick))
system.cpu.icache.tags.avgOccs::cpu.inst     0.924295                       # Average percentage of cache occupancy ((Ratio/Tick))
system.cpu.icache.tags.avgOccs::total        0.924295                       # Average percentage of cache occupancy ((Ratio/Tick))
system.cpu.icache.tags.occupanciesTaskId::1024          243                       # Occupied blocks per task id (Count)
system.cpu.icache.tags.ageTaskId_1024::0           43                       # Occupied blocks per task id, per block age (Count)
system.cpu.icache.tags.ageTaskId_1024::2            1                       # Occupied blocks per task id, per block age (Count)
system.cpu.icache.tags.ageTaskId_1024::3          199                       # Occupied blocks per task id, per block age (Count)
system.cpu.icache.tags.ratioOccsTaskId::1024     0.949219                       # Ratio of occupied blocks and all blocks, per task id (Ratio)
system.cpu.icache.tags.tagAccesses             966512                       # Number of tag accesses (Count)
system.cpu.icache.tags.dataAccesses            966512                       # Number of data accesses (Count)
system.cpu.icache.tags.power_state.pwrStateResidencyTicks::UNDEFINED   1807062000                       # Cumulative time (in ticks) in various power states (Tick)
system.cpu.iew.idleCycles                           0                       # Number of cycles IEW is idle (Cycle)
system.cpu.iew.squashCycles                     58942                       # Number of cycles IEW is squashing (Cycle)
system.cpu.iew.blockCycles                     193843                       # Number of cycles IEW is blocking (Cycle)
system.cpu.iew.unblockCycles                      486                       # Number of cycles IEW is unblocking (Cycle)
system.cpu.iew.dispatchedInsts                6116011                       # Number of instructions dispatched to IQ (Count)
system.cpu.iew.dispSquashedInsts                  621                       # Number of squashed instructions skipped by dispatch (Count)
system.cpu.iew.dispLoadInsts                   514107                       # Number of dispatched load instructions (Count)
system.cpu.iew.dispStoreInsts                  378851                       # Number of dispatched store instructions (Count)
system.cpu.iew.dispNonSpecInsts                    25                       # Number of dispatched non-speculative instructions (Count)
system.cpu.iew.iqFullEvents                       104                       # Number of times the IQ has become full, causing a stall (Count)
system.cpu.iew.lsqFullEvents                      349                       # Number of times the LSQ has become full, causing a stall (Count)
system.cpu.iew.memOrderViolationEvents             13                       # Number of memory order violations (Count)
system.cpu.iew.predictedTakenIncorrect          29027                       # Number of branches that were predicted taken incorrectly (Count)
system.cpu.iew.predictedNotTakenIncorrect        34972                       # Number of branches that were predicted not taken incorrectly (Count)
system.cpu.iew.branchMispredicts                63999                       # Number of branch mispredicts detected at execute (Count)
system.cpu.iew.instsToCommit                  5658703                       # Cumulative count of insts sent to commit (Count)
system.cpu.iew.writebackCount                 5640039                       # Cumulative count of insts written-back (Count)
system.cpu.iew.producerInst                   4045605                       # Number of instructions producing a value (Count)
system.cpu.iew.consumerInst                   5779606                       # Number of instructions consuming a value (Count)
system.cpu.iew.wbRate                        3.121108                       # Insts written-back per cycle ((Count/Cycle))
system.cpu.iew.wbFanout                      0.699979                       # Average fanout of values written-back ((Count/Count))
system.cpu.interrupts.clk_domain.clock          16000                       # Clock period in ticks (Tick)
system.cpu.itb_walker_cache.blockedCycles::no_mshrs            0                       # number of cycles access was blocked (Cycle)
system.cpu.itb_walker_cache.blockedCycles::no_targets            0                       # number of cycles access was blocked (Cycle)
system.cpu.itb_walker_cache.blockedCauses::no_mshrs            0                       # number of times access was blocked (Count)
system.cpu.itb_walker_cache.blockedCauses::no_targets            0                       # number of times access was blocked (Count)
system.cpu.itb_walker_cache.avgBlocked::no_mshrs          nan                       # average number of cycles each access was blocked ((Cycle/Count))
system.cpu.itb_walker_cache.avgBlocked::no_targets          nan                       # average number of cycles each access was blocked ((Cycle/Count))
system.cpu.itb_walker_cache.replacements            0                       # number of replacements (Count)
system.cpu.itb_walker_cache.power_state.pwrStateResidencyTicks::UNDEFINED   1807062000                       # Cumulative time (in ticks) in various power states (Tick)
system.cpu.itb_walker_cache.tags.tagsInUse            0                       # Average ticks per tags in use ((Tick/Count))
system.cpu.itb_walker_cache.tags.totalRefs            0                       # Total number of references to valid blocks. (Count)
system.cpu.itb_walker_cache.tags.sampledRefs            0                       # Sample count of references to valid blocks. (Count)
system.cpu.itb_walker_cache.tags.avgRefs          nan                       # Average number of references to valid blocks. ((Count/Count))
system.cpu.itb_walker_cache.tags.warmupTick            0                       # The tick when the warmup percentage was hit. (Tick)
system.cpu.itb_walker_cache.tags.tagAccesses            0                       # Number of tag accesses (Count)
system.cpu.itb_walker_cache.tags.dataAccesses            0                       # Number of data accesses (Count)
system.cpu.itb_walker_cache.tags.power_state.pwrStateResidencyTicks::UNDEFINED   1807062000                       # Cumulative time (in ticks) in various power states (Tick)
system.cpu.lsq0.forwLoads                       28398                       # Number of loads that had data forwarded from stores (Count)
system.cpu.lsq0.squashedLoads                  134231                       # Number of loads squashed (Count)
system.cpu.lsq0.ignoredResponses                   93                       # Number of memory responses ignored because the instruction is squashed (Count)
system.cpu.lsq0.memOrderViolation                  13                       # Number of memory ordering violations (Count)
system.cpu.lsq0.squashedStores                  94900                       # Number of stores squashed (Count)
system.cpu.lsq0.rescheduledLoads                    0                       # Number of loads that were rescheduled (Count)
system.cpu.lsq0.blockedByCache                      9                       # Number of times an access to memory failed due to the cache being blocked (Count)
system.cpu.lsq0.loadToUse::samples             379876                       # Distribution of cycle latency between the first time a load is issued and its completion (Unspecified)
system.cpu.lsq0.loadToUse::mean              3.242097                       # Distribution of cycle latency between the first time a load is issued and its completion (Unspecified)
system.cpu.lsq0.loadToUse::stdev             2.771689                       # Distribution of cycle latency between the first time a load is issued and its completion (Unspecified)
system.cpu.lsq0.loadToUse::0-9                 379105     99.80%     99.80% # Distribution of cycle latency between the first time a load is issued and its completion (Unspecified)
system.cpu.lsq0.loadToUse::10-19                   16      0.00%     99.80% # Distribution of cycle latency between the first time a load is issued and its completion (Unspecified)
system.cpu.lsq0.loadToUse::20-29                   28      0.01%     99.81% # Distribution of cycle latency between the first time a load is issued and its completion (Unspecified)
system.cpu.lsq0.loadToUse::30-39                  176      0.05%     99.85% # Distribution of cycle latency between the first time a load is issued and its completion (Unspecified)
system.cpu.lsq0.loadToUse::40-49                  174      0.05%     99.90% # Distribution of cycle latency between the first time a load is issued and its completion (Unspecified)
system.cpu.lsq0.loadToUse::50-59                  198      0.05%     99.95% # Distribution of cycle latency between the first time a load is issued and its completion (Unspecified)
system.cpu.lsq0.loadToUse::60-69                   90      0.02%     99.98% # Distribution of cycle latency between the first time a load is issued and its completion (Unspecified)
[...]
system.mem_ctrls.dram.bwWrite::total          6374989                       # Write bandwidth from this memory ((Byte/Second))
system.mem_ctrls.dram.bwTotal::writebacks      6374989                       # Total bandwidth to/from this memory ((Byte/Second))
system.mem_ctrls.dram.bwTotal::cpu.inst      16504138                       # Total bandwidth to/from this memory ((Byte/Second))
system.mem_ctrls.dram.bwTotal::cpu.data      45227004                       # Total bandwidth to/from this memory ((Byte/Second))
system.mem_ctrls.dram.bwTotal::total         68106130                       # Total bandwidth to/from this memory ((Byte/Second))
system.mem_ctrls.dram.readBursts                 1721                       # Number of DRAM read bursts (Count)
system.mem_ctrls.dram.writeBursts                 368                       # Number of DRAM write bursts (Count)
system.mem_ctrls.dram.perBankRdBursts::0          223                       # Per bank write bursts (Count)
system.mem_ctrls.dram.perBankRdBursts::1          100                       # Per bank write bursts (Count)
system.mem_ctrls.dram.perBankRdBursts::2           87                       # Per bank write bursts (Count)
system.mem_ctrls.dram.perBankRdBursts::3          145                       # Per bank write bursts (Count)
system.mem_ctrls.dram.perBankRdBursts::4          131                       # Per bank write bursts (Count)
system.mem_ctrls.dram.perBankRdBursts::5          144                       # Per bank write bursts (Count)
system.mem_ctrls.dram.perBankRdBursts::6          149                       # Per bank write bursts (Count)
system.mem_ctrls.dram.perBankRdBursts::7           67                       # Per bank write bursts (Count)
system.mem_ctrls.dram.perBankRdBursts::8            9                       # Per bank write bursts (Count)
system.mem_ctrls.dram.perBankRdBursts::9           53                       # Per bank write bursts (Count)
system.mem_ctrls.dram.perBankRdBursts::10           14                       # Per bank write bursts (Count)
system.mem_ctrls.dram.perBankRdBursts::11           26                       # Per bank write bursts (Count)
system.mem_ctrls.dram.perBankRdBursts::12           35                       # Per bank write bursts (Count)
system.mem_ctrls.dram.perBankRdBursts::13          156                       # Per bank write bursts (Count)
system.mem_ctrls.dram.perBankRdBursts::14          208                       # Per bank write bursts (Count)
system.mem_ctrls.dram.perBankRdBursts::15          174                       # Per bank write bursts (Count)
system.mem_ctrls.dram.perBankWrBursts::0           24                       # Per bank write bursts (Count)
system.mem_ctrls.dram.perBankWrBursts::1           72                       # Per bank write bursts (Count)
system.mem_ctrls.dram.perBankWrBursts::2           17                       # Per bank write bursts (Count)
system.mem_ctrls.dram.perBankWrBursts::3           13                       # Per bank write bursts (Count)
system.mem_ctrls.dram.perBankWrBursts::4            0                       # Per bank write bursts (Count)
system.mem_ctrls.dram.perBankWrBursts::5            8                       # Per bank write bursts (Count)
system.mem_ctrls.dram.perBankWrBursts::6           54                       # Per bank write bursts (Count)
system.mem_ctrls.dram.perBankWrBursts::7           26                       # Per bank write bursts (Count)
system.mem_ctrls.dram.perBankWrBursts::8            4                       # Per bank write bursts (Count)
system.mem_ctrls.dram.perBankWrBursts::9           43                       # Per bank write bursts (Count)
system.mem_ctrls.dram.perBankWrBursts::10            8                       # Per bank write bursts (Count)
system.mem_ctrls.dram.perBankWrBursts::11            1                       # Per bank write bursts (Count)
system.mem_ctrls.dram.perBankWrBursts::12           10                       # Per bank write bursts (Count)
system.mem_ctrls.dram.perBankWrBursts::13           22                       # Per bank write bursts (Count)
system.mem_ctrls.dram.perBankWrBursts::14           45                       # Per bank write bursts (Count)
system.mem_ctrls.dram.perBankWrBursts::15           21                       # Per bank write bursts (Count)
system.mem_ctrls.dram.totQLat                19812750                       # Total ticks spent queuing (Tick)
system.mem_ctrls.dram.totBusLat               8605000                       # Total ticks spent in databus transfers (Tick)
system.mem_ctrls.dram.totMemAccLat           52081500                       # Total ticks spent from burst creation until serviced by the DRAM (Tick)
system.mem_ctrls.dram.avgQLat                11512.35                       # Average queueing delay per DRAM burst ((Tick/Count))
system.mem_ctrls.dram.avgBusLat               5000.00                       # Average bus latency per DRAM burst ((Tick/Count))
system.mem_ctrls.dram.avgMemAccLat           30262.35                       # Average memory access latency per DRAM burst ((Tick/Count))
system.mem_ctrls.dram.readRowHits                1240                       # Number of row buffer hits during reads (Count)
system.mem_ctrls.dram.writeRowHits                290                       # Number of row buffer hits during writes (Count)
system.mem_ctrls.dram.readRowHitRate            72.05                       # Row buffer hit rate for reads (Ratio)
system.mem_ctrls.dram.writeRowHitRate           78.80                       # Row buffer hit rate for writes (Ratio)
system.mem_ctrls.dram.bytesPerActivate::samples          556                       # Bytes accessed per row activation (Byte)
system.mem_ctrls.dram.bytesPerActivate::mean   239.309353                       # Bytes accessed per row activation (Byte)
system.mem_ctrls.dram.bytesPerActivate::gmean   189.566072                       # Bytes accessed per row activation (Byte)
system.mem_ctrls.dram.bytesPerActivate::stdev   196.186154                       # Bytes accessed per row activation (Byte)
system.mem_ctrls.dram.bytesPerActivate::0-127           89     16.01%     16.01% # Bytes accessed per row activation (Byte)
system.mem_ctrls.dram.bytesPerActivate::128-255          224     40.29%     56.29% # Bytes accessed per row activation (Byte)
system.mem_ctrls.dram.bytesPerActivate::256-383          183     32.91%     89.21% # Bytes accessed per row activation (Byte)
system.mem_ctrls.dram.bytesPerActivate::384-511           15      2.70%     91.91% # Bytes accessed per row activation (Byte)
system.mem_ctrls.dram.bytesPerActivate::512-639           12      2.16%     94.06% # Bytes accessed per row activation (Byte)
system.mem_ctrls.dram.bytesPerActivate::640-767            7      1.26%     95.32% # Bytes accessed per row activation (Byte)
system.mem_ctrls.dram.bytesPerActivate::768-895            5      0.90%     96.22% # Bytes accessed per row activation (Byte)
system.mem_ctrls.dram.bytesPerActivate::896-1023            5      0.90%     97.12% # Bytes accessed per row activation (Byte)
system.mem_ctrls.dram.bytesPerActivate::1024-1151           16      2.88%    100.00% # Bytes accessed per row activation (Byte)
system.mem_ctrls.dram.bytesPerActivate::total          556                       # Bytes accessed per row activation (Byte)
system.mem_ctrls.dram.bytesRead                110144                       # Total bytes read (Byte)
system.mem_ctrls.dram.bytesWritten              23552                       # Total bytes written (Byte)
system.mem_ctrls.dram.avgRdBW               60.951976                       # Average DRAM read bandwidth in MiBytes/s ((Byte/Second))
system.mem_ctrls.dram.avgWrBW               13.033310                       # Average DRAM write bandwidth in MiBytes/s ((Byte/Second))
system.mem_ctrls.dram.peakBW                 12800.00                       # Theoretical peak bandwidth in MiByte/s ((Byte/Second))
system.mem_ctrls.dram.busUtil                    0.58                       # Data bus utilization in percentage (Ratio)
system.mem_ctrls.dram.busUtilRead                0.48                       # Data bus utilization in percentage for reads (Ratio)
system.mem_ctrls.dram.busUtilWrite               0.10                       # Data bus utilization in percentage for writes (Ratio)
system.mem_ctrls.dram.pageHitRate               73.24                       # Row buffer hit rate, read and write combined (Ratio)
system.mem_ctrls.dram.power_state.pwrStateResidencyTicks::UNDEFINED   1807062000                       # Cumulative time (in ticks) in various power states (Tick)
system.mem_ctrls.dram.rank0.actEnergy         2456160                       # Energy for activate commands per rank (pJ) (Joule)
system.mem_ctrls.dram.rank0.preEnergy         1297890                       # Energy for precharge commands per rank (pJ) (Joule)
system.mem_ctrls.dram.rank0.readEnergy        7468440                       # Energy for read commands per rank (pJ) (Joule)
system.mem_ctrls.dram.rank0.writeEnergy       1117080                       # Energy for write commands per rank (pJ) (Joule)
system.mem_ctrls.dram.rank0.refreshEnergy 142596480.000000                       # Energy for refresh commands per rank (pJ) (Joule)
system.mem_ctrls.dram.rank0.actBackEnergy    487341450                       # Energy for active background per rank (pJ) (Joule)
system.mem_ctrls.dram.rank0.preBackEnergy    283519200                       # Energy for precharge background per rank (pJ) (Joule)
system.mem_ctrls.dram.rank0.actPowerDownEnergy            0                       # Energy for active power-down per rank (pJ) (Joule)
system.mem_ctrls.dram.rank0.prePowerDownEnergy            0                       # Energy for precharge power-down per rank (pJ) (Joule)
system.mem_ctrls.dram.rank0.selfRefreshEnergy            0                       # Energy for self refresh per rank (pJ) (Joule)
system.mem_ctrls.dram.rank0.totalEnergy     925796700                       # Total energy per rank (pJ) (Joule)
system.mem_ctrls.dram.rank0.averagePower   512.321492                       # Core power per rank (mW) (Watt)
system.mem_ctrls.dram.rank0.totalIdleTime            0                       # Total Idle time Per DRAM Rank (Tick)
system.mem_ctrls.dram.rank0.pwrStateTime::IDLE    732789250                       # Time in different power states (Tick)
system.mem_ctrls.dram.rank0.pwrStateTime::REF     60320000                       # Time in different power states (Tick)
system.mem_ctrls.dram.rank0.pwrStateTime::SREF            0                       # Time in different power states (Tick)
system.mem_ctrls.dram.rank0.pwrStateTime::PRE_PDN            0                       # Time in different power states (Tick)
system.mem_ctrls.dram.rank0.pwrStateTime::ACT   1013952750                       # Time in different power states (Tick)
system.mem_ctrls.dram.rank0.pwrStateTime::ACT_PDN            0                       # Time in different power states (Tick)
system.mem_ctrls.dram.rank1.actEnergy         1535100                       # Energy for activate commands per rank (pJ) (Joule)
system.mem_ctrls.dram.rank1.preEnergy          812130                       # Energy for precharge commands per rank (pJ) (Joule)
system.mem_ctrls.dram.rank1.readEnergy        4819500                       # Energy for read commands per rank (pJ) (Joule)
system.mem_ctrls.dram.rank1.writeEnergy        803880                       # Energy for write commands per rank (pJ) (Joule)
system.mem_ctrls.dram.rank1.refreshEnergy 142596480.000000                       # Energy for refresh commands per rank (pJ) (Joule)
system.mem_ctrls.dram.rank1.actBackEnergy    363386970                       # Energy for active background per rank (pJ) (Joule)
system.mem_ctrls.dram.rank1.preBackEnergy    387901920                       # Energy for precharge background per rank (pJ) (Joule)
system.mem_ctrls.dram.rank1.actPowerDownEnergy            0                       # Energy for active power-down per rank (pJ) (Joule)
system.mem_ctrls.dram.rank1.prePowerDownEnergy            0                       # Energy for precharge power-down per rank (pJ) (Joule)
system.mem_ctrls.dram.rank1.selfRefreshEnergy            0                       # Energy for self refresh per rank (pJ) (Joule)
system.mem_ctrls.dram.rank1.totalEnergy     901855980                       # Total energy per rank (pJ) (Joule)
system.mem_ctrls.dram.rank1.averagePower   499.073070                       # Core power per rank (mW) (Watt)
system.mem_ctrls.dram.rank1.totalIdleTime            0                       # Total Idle time Per DRAM Rank (Tick)
system.mem_ctrls.dram.rank1.pwrStateTime::IDLE   1005222750                       # Time in different power states (Tick)
system.mem_ctrls.dram.rank1.pwrStateTime::REF     60320000                       # Time in different power states (Tick)
system.mem_ctrls.dram.rank1.pwrStateTime::SREF            0                       # Time in different power states (Tick)
system.mem_ctrls.dram.rank1.pwrStateTime::PRE_PDN            0                       # Time in different power states (Tick)
system.mem_ctrls.dram.rank1.pwrStateTime::ACT    741519250                       # Time in different power states (Tick)
system.mem_ctrls.dram.rank1.pwrStateTime::ACT_PDN            0                       # Time in different power states (Tick)
system.mem_ctrls.power_state.pwrStateResidencyTicks::UNDEFINED   1807062000                       # Cumulative time (in ticks) in various power states (Tick)
system.membus.transDist::ReadResp                1114                       # Transaction distribution (Count)
system.membus.transDist::WritebackDirty           180                       # Transaction distribution (Count)
system.membus.transDist::WritebackClean           225                       # Transaction distribution (Count)
system.membus.transDist::CleanEvict                73                       # Transaction distribution (Count)
system.membus.transDist::ReadExReq                631                       # Transaction distribution (Count)
system.membus.transDist::ReadExResp               631                       # Transaction distribution (Count)
system.membus.transDist::ReadCleanReq             468                       # Transaction distribution (Count)
system.membus.transDist::ReadSharedReq            646                       # Transaction distribution (Count)
system.membus.pktCount_system.cpu.icache.mem_side_port::system.mem_ctrls.port         1159                       # Packet count per connected requestor and responder (Count)
system.membus.pktCount_system.cpu.icache.mem_side_port::total         1159                       # Packet count per connected requestor and responder (Count)
system.membus.pktCount_system.cpu.dcache.mem_side_port::system.mem_ctrls.port         2807                       # Packet count per connected requestor and responder (Count)
system.membus.pktCount_system.cpu.dcache.mem_side_port::total         2807                       # Packet count per connected requestor and responder (Count)
system.membus.pktCount::total                    3966                       # Packet count per connected requestor and responder (Count)
system.membus.pktSize_system.cpu.icache.mem_side_port::system.mem_ctrls.port        44224                       # Cumulative packet size per connected requestor and responder (Byte)
system.membus.pktSize_system.cpu.icache.mem_side_port::total        44224                       # Cumulative packet size per connected requestor and responder (Byte)
system.membus.pktSize_system.cpu.dcache.mem_side_port::system.mem_ctrls.port        93248                       # Cumulative packet size per connected requestor and responder (Byte)
system.membus.pktSize_system.cpu.dcache.mem_side_port::total        93248                       # Cumulative packet size per connected requestor and responder (Byte)
system.membus.pktSize::total                   137472                       # Cumulative packet size per connected requestor and responder (Byte)
system.membus.snoops                                2                       # Total snoops (Count)
system.membus.snoopTraffic                        128                       # Total snoop traffic (Byte)
system.membus.snoopFanout::samples               1745                       # Request fanout histogram (Count)
system.membus.snoopFanout::mean              0.002292                       # Request fanout histogram (Count)
system.membus.snoopFanout::stdev             0.047836                       # Request fanout histogram (Count)
system.membus.snoopFanout::underflows               0      0.00%      0.00% # Request fanout histogram (Count)
system.membus.snoopFanout::0                     1741     99.77%     99.77% # Request fanout histogram (Count)
system.membus.snoopFanout::1                        4      0.23%    100.00% # Request fanout histogram (Count)
system.membus.snoopFanout::2                        0      0.00%    100.00% # Request fanout histogram (Count)
system.membus.snoopFanout::3                        0      0.00%    100.00% # Request fanout histogram (Count)
system.membus.snoopFanout::4                        0      0.00%    100.00% # Request fanout histogram (Count)
system.membus.snoopFanout::overflows                0      0.00%    100.00% # Request fanout histogram (Count)
system.membus.snoopFanout::min_value                0                       # Request fanout histogram (Count)
system.membus.snoopFanout::max_value                1                       # Request fanout histogram (Count)
system.membus.snoopFanout::total                 1745                       # Request fanout histogram (Count)
system.membus.power_state.pwrStateResidencyTicks::UNDEFINED   1807062000                       # Cumulative time (in ticks) in various power states (Tick)
system.membus.reqLayer2.occupancy             3843000                       # Layer occupancy (ticks) (Tick)
system.membus.reqLayer2.utilization               0.0                       # Layer utilization (Ratio)
system.membus.respLayer1.occupancy            2478750                       # Layer occupancy (ticks) (Tick)
system.membus.respLayer1.utilization              0.0                       # Layer utilization (Ratio)
system.membus.respLayer2.occupancy            6794000                       # Layer occupancy (ticks) (Tick)
system.membus.respLayer2.utilization              0.0                       # Layer utilization (Ratio)
system.membus.snoop_filter.totRequests           2223                       # Total number of requests made to the snoop filter. (Count)
system.membus.snoop_filter.hitSingleRequests          478                       # Number of requests hitting in the snoop filter with a single holder of the requested data. (Count)
system.membus.snoop_filter.hitMultiRequests            4                       # Number of requests hitting in the snoop filter with multiple (>1) holders of the requested data. (Count)
system.membus.snoop_filter.totSnoops                0                       # Total number of snoops made to the snoop filter. (Count)
system.membus.snoop_filter.hitSingleSnoops            0                       # Number of snoops hitting in the snoop filter with a single holder of the requested data. (Count)
system.membus.snoop_filter.hitMultiSnoops            0                       # Number of snoops hitting in the snoop filter with multiple (>1) holders of the requested data. (Count)
system.voltage_domain.voltage                       1                       # Voltage in Volts (Volt)
system.workload.inst.arm                            0                       # number of arm instructions executed (Count)
system.workload.inst.quiesce                        0                       # number of quiesce instructions executed (Count)

---------- End Simulation Statistics   ----------
