
---------- Begin Simulation Statistics ----------
simSeconds                                   0.007608                       # Number of seconds simulated (Second)
simTicks                                   7607894000                       # Number of ticks simulated (Tick)
finalTick                                  7607894000                       # Number of ticks from beginning of simulation (restored from checkpoints and never reset) (Tick)
simFreq                                  1000000000000                       # The number of ticks per simulated second ((Tick/Second))
hostSeconds                                     62.88                       # Real time elapsed on the host (Second)
hostTickRate                                120998600                       # The number of ticks simulated per host second (ticks/s) ((Tick/Second))
hostMemory                                     691196                       # Number of bytes of host memory used (Byte)
simInsts                                     11585134                       # Number of instructions simulated (Count)
simOps                                       19857907                       # Number of ops (including micro ops) simulated (Count)
hostInstRate                                   184254                       # Simulator instruction rate (inst/s) ((Count/Second))
hostOpRate                                     315827                       # Simulator op (including micro ops) rate (op/s) ((Count/Second))
system.clk_domain.clock                          1000                       # Clock period in ticks (Tick)
system.cpu.numCycles                          7607895                       # Number of cpu cycles simulated (Cycle)
system.cpu.numWorkItemsStarted                      0                       # Number of work items this cpu started (Count)
system.cpu.numWorkItemsCompleted                    0                       # Number of work items this cpu completed (Count)
system.cpu.instsAdded                        19885095                       # Number of instructions added to the IQ (excludes non-spec) (Count)
system.cpu.nonSpecInstsAdded                       67                       # Number of non-speculative instructions added to the IQ (Count)
system.cpu.instsIssued                       20047239                       # Number of instructions issued (Count)
system.cpu.squashedInstsIssued                    185                       # Number of squashed instructions issued (Count)
system.cpu.squashedInstsExamined                27249                       # Number of squashed instructions iterated over during squash; mainly for profiling (Count)
system.cpu.squashedOperandsExamined             43300                       # Number of squashed operands that are examined and possibly removed from graph (Count)
system.cpu.squashedNonSpecRemoved                  66                       # Number of squashed non-spec instructions that were removed (Count)
system.cpu.numIssuedDist::samples             7598226                       # Number of insts issued each cycle (Count)
system.cpu.numIssuedDist::mean               2.638410                       # Number of insts issued each cycle (Count)
system.cpu.numIssuedDist::stdev              2.205294                       # Number of insts issued each cycle (Count)
system.cpu.numIssuedDist::underflows                0      0.00%      0.00% # Number of insts issued each cycle (Count)
system.cpu.numIssuedDist::0                   1527699     20.11%     20.11% # Number of insts issued each cycle (Count)
system.cpu.numIssuedDist::1                   1222756     16.09%     36.20% # Number of insts issued each cycle (Count)
system.cpu.numIssuedDist::2                   1205361     15.86%     52.06% # Number of insts issued each cycle (Count)
system.cpu.numIssuedDist::3                   1272904     16.75%     68.82% # Number of insts issued each cycle (Count)
system.cpu.numIssuedDist::4                   1025157     13.49%     82.31% # Number of insts issued each cycle (Count)
system.cpu.numIssuedDist::5                    552918      7.28%     89.58% # Number of insts issued each cycle (Count)
system.cpu.numIssuedDist::6                    246171      3.24%     92.82% # Number of insts issued each cycle (Count)
system.cpu.numIssuedDist::7                    109275      1.44%     94.26% # Number of insts issued each cycle (Count)
system.cpu.numIssuedDist::8                    435985      5.74%    100.00% # Number of insts issued each cycle (Count)
system.cpu.numIssuedDist::overflows                 0      0.00%    100.00% # Number of insts issued each cycle (Count)
system.cpu.numIssuedDist::min_value                 0                       # Number of insts issued each cycle (Count)
system.cpu.numIssuedDist::max_value                 8                       # Number of insts issued each cycle (Count)
system.cpu.numIssuedDist::total               7598226                       # Number of insts issued each cycle (Count)
system.cpu.statFuBusy::No_OpClass                   0      0.00%      0.00% # attempts to use FU when none available (Count)
system.cpu.statFuBusy::IntAlu                   10134     34.33%     34.33% # attempts to use FU when none available (Count)
system.cpu.statFuBusy::IntMult                      0      0.00%     34.33% # attempts to use FU when none available (Count)
system.cpu.statFuBusy::IntDiv                       0      0.00%     34.33% # attempts to use FU when none available (Count)
system.cpu.statFuBusy::FloatAdd                     7      0.02%     34.35% # attempts to use FU when none available (Count)
system.cpu.statFuBusy::FloatCmp                     0      0.00%     34.35% # attempts to use FU when none available (Count)
system.cpu.statFuBusy::FloatCvt                     0      0.00%     34.35% # attempts to use FU when none available (Count)
system.cpu.statFuBusy::FloatMult                    0      0.00%     34.35% # attempts to use FU when none available (Count)
system.cpu.statFuBusy::FloatMultAcc                 0      0.00%     34.35% # attempts to use FU when none available (Count)
system.cpu.statFuBusy::FloatDiv                     0      0.00%     34.35% # attempts to use FU when none available (Count)
system.cpu.statFuBusy::FloatMisc                    0      0.00%     34.35% # attempts to use FU when none available (Count)
system.cpu.statFuBusy::FloatSqrt                    0      0.00%     34.35% # attempts to use FU when none available (Count)
system.cpu.statFuBusy::SimdAdd                      0      0.00%     34.35% # attempts to use FU when none available (Count)
system.cpu.statFuBusy::SimdAddAcc                   0      0.00%     34.35% # attempts to use FU when none available (Count)
system.cpu.statFuBusy::SimdAlu                     10      0.03%     34.39% # attempts to use FU when none available (Count)
system.cpu.statFuBusy::SimdCmp                      0      0.00%     34.39% # attempts to use FU when none available (Count)
system.cpu.statFuBusy::SimdCvt                      1      0.00%     34.39% # attempts to use FU when none available (Count)
system.cpu.statFuBusy::SimdMisc                     1      0.00%     34.39% # attempts to use FU when none available (Count)
system.cpu.statFuBusy::SimdMult                     0      0.00%     34.39% # attempts to use FU when none available (Count)
system.cpu.statFuBusy::SimdMultAcc                  0      0.00%     34.39% # attempts to use FU when none available (Count)
system.cpu.statFuBusy::SimdShift                    0      0.00%     34.39% # attempts to use FU when none available (Count)
system.cpu.statFuBusy::SimdShiftAcc                 0      0.00%     34.39% # attempts to use FU when none available (Count)
system.cpu.statFuBusy::SimdDiv                      0      0.00%     34.39% # attempts to use FU when none available (Count)
system.cpu.statFuBusy::SimdSqrt                     0      0.00%     34.39% # attempts to use FU when none available (Count)
system.cpu.statFuBusy::SimdFloatAdd                 0      0.00%     34.39% # attempts to use FU when none available (Count)
system.cpu.statFuBusy::SimdFloatAlu                 0      0.00%     34.39% # attempts to use FU when none available (Count)
system.cpu.statFuBusy::SimdFloatCmp                 0      0.00%     34.39% # attempts to use FU when none available (Count)
system.cpu.statFuBusy::SimdFloatCvt                 0      0.00%     34.39% # attempts to use FU when none available (Count)
system.cpu.statFuBusy::SimdFloatDiv                 0      0.00%     34.39% # attempts to use FU when none available (Count)
system.cpu.statFuBusy::SimdFloatMisc                0      0.00%     34.39% # attempts to use FU when none available (Count)
system.cpu.statFuBusy::SimdFloatMult            16085     54.49%     88.88% # attempts to use FU when none available (Count)
system.cpu.statFuBusy::SimdFloatMultAcc             0      0.00%     88.88% # attempts to use FU when none available (Count)
system.cpu.statFuBusy::SimdFloatSqrt                0      0.00%     88.88% # attempts to use FU when none available (Count)
system.cpu.statFuBusy::SimdReduceAdd                0      0.00%     88.88% # attempts to use FU when none available (Count)
system.cpu.statFuBusy::SimdReduceAlu                0      0.00%     88.88% # attempts to use FU when none available (Count)
system.cpu.statFuBusy::SimdReduceCmp                0      0.00%     88.88% # attempts to use FU when none available (Count)
system.cpu.statFuBusy::SimdFloatReduceAdd            0      0.00%     88.88% # attempts to use FU when none available (Count)
system.cpu.statFuBusy::SimdFloatReduceCmp            0      0.00%     88.88% # attempts to use FU when none available (Count)
system.cpu.statFuBusy::SimdAes                      0      0.00%     88.88% # attempts to use FU when none available (Count)
system.cpu.statFuBusy::SimdAesMix                   0      0.00%     88.88% # attempts to use FU when none available (Count)
system.cpu.statFuBusy::SimdSha1Hash                 0      0.00%     88.88% # attempts to use FU when none available (Count)
system.cpu.statFuBusy::SimdSha1Hash2                0      0.00%     88.88% # attempts to use FU when none available (Count)
system.cpu.statFuBusy::SimdSha256Hash               0      0.00%     88.88% # attempts to use FU when none available (Count)
system.cpu.statFuBusy::SimdSha256Hash2              0      0.00%     88.88% # attempts to use FU when none available (Count)
system.cpu.statFuBusy::SimdShaSigma2                0      0.00%     88.88% # attempts to use FU when none available (Count)
system.cpu.statFuBusy::SimdShaSigma3                0      0.00%     88.88% # attempts to use FU when none available (Count)
system.cpu.statFuBusy::SimdPredAlu                  0      0.00%     88.88% # attempts to use FU when none available (Count)
system.cpu.statFuBusy::MemRead                    765      2.59%     91.47% # attempts to use FU when none available (Count)
system.cpu.statFuBusy::MemWrite                    24      0.08%     91.55% # attempts to use FU when none available (Count)
system.cpu.statFuBusy::FloatMemRead              2481      8.40%     99.96% # attempts to use FU when none available (Count)
system.cpu.statFuBusy::FloatMemWrite               13      0.04%    100.00% # attempts to use FU when none available (Count)
system.cpu.statFuBusy::IprAccess                    0      0.00%    100.00% # attempts to use FU when none available (Count)
system.cpu.statFuBusy::InstPrefetch                 0      0.00%    100.00% # attempts to use FU when none available (Count)
system.cpu.statIssuedInstType_0::No_OpClass        33180      0.17%      0.17% # Number of instructions issued per FU type, per thread (Count)
system.cpu.statIssuedInstType_0::IntAlu       3501852     17.47%     17.63% # Number of instructions issued per FU type, per thread (Count)
system.cpu.statIssuedInstType_0::IntMult            4      0.00%     17.63% # Number of instructions issued per FU type, per thread (Count)
system.cpu.statIssuedInstType_0::IntDiv            16      0.00%     17.63% # Number of instructions issued per FU type, per thread (Count)
system.cpu.statIssuedInstType_0::FloatAdd      4197560     20.94%     38.57% # Number of instructions issued per FU type, per thread (Count)
system.cpu.statIssuedInstType_0::FloatCmp            0      0.00%     38.57% # Number of instructions issued per FU type, per thread (Count)
system.cpu.statIssuedInstType_0::FloatCvt            0      0.00%     38.57% # Number of instructions issued per FU type, per thread (Count)
system.cpu.statIssuedInstType_0::FloatMult            0      0.00%     38.57% # Number of instructions issued per FU type, per thread (Count)
system.cpu.statIssuedInstType_0::FloatMultAcc            0      0.00%     38.57% # Number of instructions issued per FU type, per thread (Count)
system.cpu.statIssuedInstType_0::FloatDiv            0      0.00%     38.57% # Number of instructions issued per FU type, per thread (Count)
system.cpu.statIssuedInstType_0::FloatMisc            0      0.00%     38.57% # Number of instructions issued per FU type, per thread (Count)
system.cpu.statIssuedInstType_0::FloatSqrt            0      0.00%     38.57% # Number of instructions issued per FU type, per thread (Count)
system.cpu.statIssuedInstType_0::SimdAdd          378      0.00%     38.57% # Number of instructions issued per FU type, per thread (Count)
system.cpu.statIssuedInstType_0::SimdAddAcc            0      0.00%     38.57% # Number of instructions issued per FU type, per thread (Count)
system.cpu.statIssuedInstType_0::SimdAlu           94      0.00%     38.57% # Number of instructions issued per FU type, per thread (Count)
system.cpu.statIssuedInstType_0::SimdCmp            0      0.00%     38.57% # Number of instructions issued per FU type, per thread (Count)
system.cpu.statIssuedInstType_0::SimdCvt          113      0.00%     38.57% # Number of instructions issued per FU type, per thread (Count)
system.cpu.statIssuedInstType_0::SimdMisc          214      0.00%     38.58% # Number of instructions issued per FU type, per thread (Count)
system.cpu.statIssuedInstType_0::SimdMult            0      0.00%     38.58% # Number of instructions issued per FU type, per thread (Count)
system.cpu.statIssuedInstType_0::SimdMultAcc            0      0.00%     38.58% # Number of instructions issued per FU type, per thread (Count)
system.cpu.statIssuedInstType_0::SimdShift          186      0.00%     38.58% # Number of instructions issued per FU type, per thread (Count)
system.cpu.statIssuedInstType_0::SimdShiftAcc            0      0.00%     38.58% # Number of instructions issued per FU type, per thread (Count)
system.cpu.statIssuedInstType_0::SimdDiv            0      0.00%     38.58% # Number of instructions issued per FU type, per thread (Count)
system.cpu.statIssuedInstType_0::SimdSqrt            0      0.00%     38.58% # Number of instructions issued per FU type, per thread (Count)
system.cpu.statIssuedInstType_0::SimdFloatAdd      2097269     10.46%     49.04% # Number of instructions issued per FU type, per thread (Count)
system.cpu.statIssuedInstType_0::SimdFloatAlu            0      0.00%     49.04% # Number of instructions issued per FU type, per thread (Count)
system.cpu.statIssuedInstType_0::SimdFloatCmp            0      0.00%     49.04% # Number of instructions issued per FU type, per thread (Count)
system.cpu.statIssuedInstType_0::SimdFloatCvt            1      0.00%     49.04% # Number of instructions issued per FU type, per thread (Count)
system.cpu.statIssuedInstType_0::SimdFloatDiv            0      0.00%     49.04% # Number of instructions issued per FU type, per thread (Count)
system.cpu.statIssuedInstType_0::SimdFloatMisc            0      0.00%     49.04% # Number of instructions issued per FU type, per thread (Count)
system.cpu.statIssuedInstType_0::SimdFloatMult      2097319     10.46%     59.50% # Number of instructions issued per FU type, per thread (Count)
system.cpu.statIssuedInstType_0::SimdFloatMultAcc            0      0.00%     59.50% # Number of instructions issued per FU type, per thread (Count)
system.cpu.statIssuedInstType_0::SimdFloatSqrt            0      0.00%     59.50% # Number of instructions issued per FU type, per thread (Count)
system.cpu.statIssuedInstType_0::SimdReduceAdd            0      0.00%     59.50% # Number of instructions issued per FU type, per thread (Count)
system.cpu.statIssuedInstType_0::SimdReduceAlu            0      0.00%     59.50% # Number of instructions issued per FU type, per thread (Count)
system.cpu.statIssuedInstType_0::SimdReduceCmp            0      0.00%     59.50% # Number of instructions issued per FU type, per thread (Count)
system.cpu.statIssuedInstType_0::SimdFloatReduceAdd            0      0.00%     59.50% # Number of instructions issued per FU type, per thread (Count)
system.cpu.statIssuedInstType_0::SimdFloatReduceCmp            0      0.00%     59.50% # Number of instructions issued per FU type, per thread (Count)
system.cpu.statIssuedInstType_0::SimdAes            0      0.00%     59.50% # Number of instructions issued per FU type, per thread (Count)
system.cpu.statIssuedInstType_0::SimdAesMix            0      0.00%     59.50% # Number of instructions issued per FU type, per thread (Count)
system.cpu.statIssuedInstType_0::SimdSha1Hash            0      0.00%     59.50% # Number of instructions issued per FU type, per thread (Count)
system.cpu.statIssuedInstType_0::SimdSha1Hash2            0      0.00%     59.50% # Number of instructions issued per FU type, per thread (Count)
system.cpu.statIssuedInstType_0::SimdSha256Hash            0      0.00%     59.50% # Number of instructions issued per FU type, per thread (Count)
system.cpu.statIssuedInstType_0::SimdSha256Hash2            0      0.00%     59.50% # Number of instructions issued per FU type, per thread (Count)
system.cpu.statIssuedInstType_0::SimdShaSigma2            0      0.00%     59.50% # Number of instructions issued per FU type, per thread (Count)
system.cpu.statIssuedInstType_0::SimdShaSigma3            0      0.00%     59.50% # Number of instructions issued per FU type, per thread (Count)
system.cpu.statIssuedInstType_0::SimdPredAlu            0      0.00%     59.50% # Number of instructions issued per FU type, per thread (Count)
system.cpu.statIssuedInstType_0::MemRead      1387364      6.92%     66.42% # Number of instructions issued per FU type, per thread (Count)
system.cpu.statIssuedInstType_0::MemWrite         5685      0.03%     66.45% # Number of instructions issued per FU type, per thread (Count)
system.cpu.statIssuedInstType_0::FloatMemRead      4628306     23.09%     89.54% # Number of instructions issued per FU type, per thread (Count)
system.cpu.statIssuedInstType_0::FloatMemWrite      2097698     10.46%    100.00% # Number of instructions issued per FU type, per thread (Count)
system.cpu.statIssuedInstType_0::IprAccess            0      0.00%    100.00% # Number of instructions issued per FU type, per thread (Count)
system.cpu.statIssuedInstType_0::InstPrefetch            0      0.00%    100.00% # Number of instructions issued per FU type, per thread (Count)
system.cpu.statIssuedInstType_0::total       20047239                       # Number of instructions issued per FU type, per thread (Count)
system.cpu.issueRate                         2.635057                       # Inst issue rate ((Count/Cycle))
system.cpu.fuBusy                               29521                       # FU busy when requested (Count)
system.cpu.fuBusyRate                        0.001473                       # FU busy rate (busy events/executed inst) ((Count/Count))
system.cpu.intInstQueueReads                 17464482                       # Number of integer instruction queue reads (Count)
system.cpu.intInstQueueWrites                 4949100                       # Number of integer instruction queue writes (Count)
system.cpu.intInstQueueWakeupAccesses         4925007                       # Number of integer instruction queue wakeup accesses (Count)
system.cpu.fpInstQueueReads                  30257928                       # Number of floating instruction queue reads (Count)
system.cpu.fpInstQueueWrites                 14963563                       # Number of floating instruction queue writes (Count)
system.cpu.fpInstQueueWakeupAccesses         14947976                       # Number of floating instruction queue wakeup accesses (Count)
system.cpu.vecInstQueueReads                        0                       # Number of vector instruction queue reads (Count)
system.cpu.vecInstQueueWrites                       0                       # Number of vector instruction queue writes (Count)
system.cpu.vecInstQueueWakeupAccesses               0                       # Number of vector instruction queue wakeup accesses (Count)
system.cpu.intAluAccesses                     4905327                       # Number of integer alu accesses (Count)
system.cpu.fpAluAccesses                     15138253                       # Number of floating point alu accesses (Count)
system.cpu.vecAluAccesses                           0                       # Number of vector alu accesses (Count)
system.cpu.numInsts                          20045570                       # Number of executed instructions (Count)
system.cpu.numLoadInsts                       6015141                       # Number of load instructions executed (Count)
system.cpu.numSquashedInsts                      1669                       # Number of squashed instructions skipped in execute (Count)
system.cpu.numSwp                                   0                       # Number of swp insts executed (Count)
system.cpu.numNop                                   0                       # Number of nop insts executed (Count)
system.cpu.numRefs                            8118358                       # Number of memory reference insts executed (Count)
system.cpu.numBranches                         297162                       # Number of branches executed (Count)
system.cpu.numStoreInsts                      2103217                       # Number of stores executed (Count)
system.cpu.numRate                           2.634838                       # Inst execution rate ((Count/Cycle))
system.cpu.timesIdled                             262                       # Number of times that the entire CPU went into an idle state and unscheduled itself (Count)
system.cpu.idleCycles                            9669                       # Total number of cycles that the CPU has spent unscheduled due to idling (Cycle)
system.cpu.committedInsts                    11585134                       # Number of Instructions Simulated (Count)
system.cpu.committedOps                      19857907                       # Number of Ops (including micro ops) Simulated (Count)
system.cpu.cpi                               0.656695                       # CPI: Cycles Per Instruction ((Cycle/Count))
system.cpu.totalCpi                          0.656695                       # CPI: Total CPI of All Threads ((Cycle/Count))
system.cpu.ipc                               1.522778                       # IPC: Instructions Per Cycle ((Count/Cycle))
system.cpu.totalIpc                          1.522778                       # IPC: Total IPC of All Threads ((Count/Cycle))
system.cpu.intRegfileReads                   14219899                       # Number of integer regfile reads (Count)
system.cpu.intRegfileWrites                   4292673                       # Number of integer regfile writes (Count)
system.cpu.fpRegfileReads                    14684849                       # Number of floating regfile reads (Count)
system.cpu.fpRegfileWrites                   12850492                       # Number of floating regfile writes (Count)
system.cpu.ccRegfileReads                     1518125                       # number of cc regfile reads (Count)
system.cpu.ccRegfileWrites                    2310383                       # number of cc regfile writes (Count)
system.cpu.miscRegfileReads                   8713712                       # number of misc regfile reads (Count)
system.cpu.miscRegfileWrites                        1                       # number of misc regfile writes (Count)
system.cpu.MemDepUnit__0.insertedLoads        5846762                       # Number of loads inserted to the mem dependence unit. (Count)
system.cpu.MemDepUnit__0.insertedStores       2105068                       # Number of stores inserted to the mem dependence unit. (Count)
system.cpu.MemDepUnit__0.conflictingLoads      2097559                       # Number of conflicting loads. (Count)
system.cpu.MemDepUnit__0.conflictingStores      1862957                       # Number of conflicting stores. (Count)
system.cpu.MemDepUnit__1.insertedLoads              0                       # Number of loads inserted to the mem dependence unit. (Count)
system.cpu.MemDepUnit__1.insertedStores             0                       # Number of stores inserted to the mem dependence unit. (Count)
system.cpu.MemDepUnit__1.conflictingLoads            0                       # Number of conflicting loads. (Count)
system.cpu.MemDepUnit__1.conflictingStores            0                       # Number of conflicting stores. (Count)
system.cpu.MemDepUnit__2.insertedLoads              0                       # Number of loads inserted to the mem dependence unit. (Count)
system.cpu.MemDepUnit__2.insertedStores             0                       # Number of stores inserted to the mem dependence unit. (Count)
system.cpu.MemDepUnit__2.conflictingLoads            0                       # Number of conflicting loads. (Count)
system.cpu.MemDepUnit__2.conflictingStores            0                       # Number of conflicting stores. (Count)
system.cpu.MemDepUnit__3.insertedLoads              0                       # Number of loads inserted to the mem dependence unit. (Count)
system.cpu.MemDepUnit__3.insertedStores             0                       # Number of stores inserted to the mem dependence unit. (Count)
system.cpu.MemDepUnit__3.conflictingLoads            0                       # Number of conflicting loads. (Count)
system.cpu.MemDepUnit__3.conflictingStores            0                       # Number of conflicting stores. (Count)
system.cpu.branchPred.lookups                  298836                       # Number of BP lookups (Count)
system.cpu.branchPred.condPredicted            297663                       # Number of conditional branches predicted (Count)
system.cpu.branchPred.condIncorrect               941                       # Number of conditional branches incorrect (Count)
system.cpu.branchPred.BTBLookups               264164                       # Number of BTB lookups (Count)
system.cpu.branchPred.BTBUpdates                  551                       # Number of BTB updates (Count)
system.cpu.branchPred.BTBHits                  263381                       # Number of BTB hits (Count)
system.cpu.branchPred.BTBHitRatio            0.997036                       # BTB Hit Ratio (Ratio)
system.cpu.branchPred.RASUsed                     291                       # Number of times the RAS was used to get a target. (Count)
system.cpu.branchPred.RASIncorrect                  1                       # Number of incorrect RAS predictions. (Count)
system.cpu.branchPred.indirectLookups             321                       # Number of indirect predictor lookups. (Count)
system.cpu.branchPred.indirectHits                 14                       # Number of indirect target hits. (Count)
system.cpu.branchPred.indirectMisses              307                       # Number of indirect misses. (Count)
system.cpu.branchPred.indirectMispredicted           83                       # Number of mispredicted indirect branches. (Count)
system.cpu.commit.commitSquashedInsts           27235                       # The number of squashed insts skipped by commit (Count)
system.cpu.commit.commitNonSpecStalls               1                       # The number of times commit has been forced to stall to communicate backwards (Count)
system.cpu.commit.branchMispredicts               765                       # The number of times a branch was mispredicted (Count)
system.cpu.commit.numCommittedDist::samples      7594258                       # Number of insts commited each cycle (Count)
system.cpu.commit.numCommittedDist::mean     2.614858                       # Number of insts commited each cycle (Count)
system.cpu.commit.numCommittedDist::stdev     3.178690                       # Number of insts commited each cycle (Count)
system.cpu.commit.numCommittedDist::underflows            0      0.00%      0.00% # Number of insts commited each cycle (Count)
system.cpu.commit.numCommittedDist::0         2592960     34.14%     34.14% # Number of insts commited each cycle (Count)
system.cpu.commit.numCommittedDist::1         2498415     32.90%     67.04% # Number of insts commited each cycle (Count)
system.cpu.commit.numCommittedDist::2           19290      0.25%     67.30% # Number of insts commited each cycle (Count)
system.cpu.commit.numCommittedDist::3           14505      0.19%     67.49% # Number of insts commited each cycle (Count)
system.cpu.commit.numCommittedDist::4          266433      3.51%     71.00% # Number of insts commited each cycle (Count)
system.cpu.commit.numCommittedDist::5          159717      2.10%     73.10% # Number of insts commited each cycle (Count)
system.cpu.commit.numCommittedDist::6          452427      5.96%     79.06% # Number of insts commited each cycle (Count)
system.cpu.commit.numCommittedDist::7           25570      0.34%     79.39% # Number of insts commited each cycle (Count)
system.cpu.commit.numCommittedDist::8         1564941     20.61%    100.00% # Number of insts commited each cycle (Count)
system.cpu.commit.numCommittedDist::overflows            0      0.00%    100.00% # Number of insts commited each cycle (Count)
system.cpu.commit.numCommittedDist::min_value            0                       # Number of insts commited each cycle (Count)
system.cpu.commit.numCommittedDist::max_value            8                       # Number of insts commited each cycle (Count)
system.cpu.commit.numCommittedDist::total      7594258                       # Number of insts commited each cycle (Count)
system.cpu.commit.instsCommitted             11585134                       # Number of instructions committed (Count)
system.cpu.commit.opsCommitted               19857907                       # Number of ops (including micro ops) committed (Count)
system.cpu.commit.memRefs                     7943518                       # Number of memory references committed (Count)
system.cpu.commit.loads                       5840874                       # Number of loads committed (Count)
system.cpu.commit.amos                              0                       # Number of atomic instructions committed (Count)
system.cpu.commit.membars                           0                       # Number of memory barriers committed (Count)
system.cpu.commit.branches                     296463                       # Number of branches committed (Count)
system.cpu.commit.vectorInstructions                0                       # Number of committed Vector instructions. (Count)
system.cpu.commit.floating                   14944169                       # Number of committed floating point instructions. (Count)
system.cpu.commit.integer                    11434735                       # Number of committed integer instructions. (Count)
system.cpu.commit.functionCalls                   128                       # Number of function calls committed. (Count)
system.cpu.commit.committedInstType_0::No_OpClass        32792      0.17%      0.17% # Class of committed instruction (Count)
system.cpu.commit.committedInstType_0::IntAlu      3492003     17.58%     17.75% # Class of committed instruction (Count)
system.cpu.commit.committedInstType_0::IntMult            4      0.00%     17.75% # Class of committed instruction (Count)
system.cpu.commit.committedInstType_0::IntDiv           14      0.00%     17.75% # Class of committed instruction (Count)
system.cpu.commit.committedInstType_0::FloatAdd      4194314     21.12%     38.87% # Class of committed instruction (Count)
system.cpu.commit.committedInstType_0::FloatCmp            0      0.00%     38.87% # Class of committed instruction (Count)
system.cpu.commit.committedInstType_0::FloatCvt            0      0.00%     38.87% # Class of committed instruction (Count)
system.cpu.commit.committedInstType_0::FloatMult            0      0.00%     38.87% # Class of committed instruction (Count)
system.cpu.commit.committedInstType_0::FloatMultAcc            0      0.00%     38.87% # Class of committed instruction (Count)
system.cpu.commit.committedInstType_0::FloatDiv            0      0.00%     38.87% # Class of committed instruction (Count)
system.cpu.commit.committedInstType_0::FloatMisc            0      0.00%     38.87% # Class of committed instruction (Count)
system.cpu.commit.committedInstType_0::FloatSqrt            0      0.00%     38.87% # Class of committed instruction (Count)
system.cpu.commit.committedInstType_0::SimdAdd          374      0.00%     38.87% # Class of committed instruction (Count)
system.cpu.commit.committedInstType_0::SimdAddAcc            0      0.00%     38.87% # Class of committed instruction (Count)
system.cpu.commit.committedInstType_0::SimdAlu           76      0.00%     38.87% # Class of committed instruction (Count)
system.cpu.commit.committedInstType_0::SimdCmp            0      0.00%     38.87% # Class of committed instruction (Count)
system.cpu.commit.committedInstType_0::SimdCvt          110      0.00%     38.87% # Class of committed instruction (Count)
system.cpu.commit.committedInstType_0::SimdMisc          212      0.00%     38.88% # Class of committed instruction (Count)
system.cpu.commit.committedInstType_0::SimdMult            0      0.00%     38.88% # Class of committed instruction (Count)
system.cpu.commit.committedInstType_0::SimdMultAcc            0      0.00%     38.88% # Class of committed instruction (Count)
system.cpu.commit.committedInstType_0::SimdShift          186      0.00%     38.88% # Class of committed instruction (Count)
system.cpu.commit.committedInstType_0::SimdShiftAcc            0      0.00%     38.88% # Class of committed instruction (Count)
system.cpu.commit.committedInstType_0::SimdDiv            0      0.00%     38.88% # Class of committed instruction (Count)
system.cpu.commit.committedInstType_0::SimdSqrt            0      0.00%     38.88% # Class of committed instruction (Count)
system.cpu.commit.committedInstType_0::SimdFloatAdd      2097152     10.56%     49.44% # Class of committed instruction (Count)
system.cpu.commit.committedInstType_0::SimdFloatAlu            0      0.00%     49.44% # Class of committed instruction (Count)
system.cpu.commit.committedInstType_0::SimdFloatCmp            0      0.00%     49.44% # Class of committed instruction (Count)
system.cpu.commit.committedInstType_0::SimdFloatCvt            0      0.00%     49.44% # Class of committed instruction (Count)
system.cpu.commit.committedInstType_0::SimdFloatDiv            0      0.00%     49.44% # Class of committed instruction (Count)
system.cpu.commit.committedInstType_0::SimdFloatMisc            0      0.00%     49.44% # Class of committed instruction (Count)
system.cpu.commit.committedInstType_0::SimdFloatMult      2097152     10.56%     60.00% # Class of committed instruction (Count)
system.cpu.commit.committedInstType_0::SimdFloatMultAcc            0      0.00%     60.00% # Class of committed instruction (Count)
system.cpu.commit.committedInstType_0::SimdFloatSqrt            0      0.00%     60.00% # Class of committed instruction (Count)
system.cpu.commit.committedInstType_0::SimdReduceAdd            0      0.00%     60.00% # Class of committed instruction (Count)
system.cpu.commit.committedInstType_0::SimdReduceAlu            0      0.00%     60.00% # Class of committed instruction (Count)
system.cpu.commit.committedInstType_0::SimdReduceCmp            0      0.00%     60.00% # Class of committed instruction (Count)
system.cpu.commit.committedInstType_0::SimdFloatReduceAdd            0      0.00%     60.00% # Class of committed instruction (Count)
system.cpu.commit.committedInstType_0::SimdFloatReduceCmp            0      0.00%     60.00% # Class of committed instruction (Count)
system.cpu.commit.committedInstType_0::SimdAes            0      0.00%     60.00% # Class of committed instruction (Count)
system.cpu.commit.committedInstType_0::SimdAesMix            0      0.00%     60.00% # Class of committed instruction (Count)
system.cpu.commit.committedInstType_0::SimdSha1Hash            0      0.00%     60.00% # Class of committed instruction (Count)
system.cpu.commit.committedInstType_0::SimdSha1Hash2            0      0.00%     60.00% # Class of committed instruction (Count)
system.cpu.commit.committedInstType_0::SimdSha256Hash            0      0.00%     60.00% # Class of committed instruction (Count)
system.cpu.commit.committedInstType_0::SimdSha256Hash2            0      0.00%     60.00% # Class of committed instruction (Count)
system.cpu.commit.committedInstType_0::SimdShaSigma2            0      0.00%     60.00% # Class of committed instruction (Count)
system.cpu.commit.committedInstType_0::SimdShaSigma3            0      0.00%     60.00% # Class of committed instruction (Count)
system.cpu.commit.committedInstType_0::SimdPredAlu            0      0.00%     60.00% # Class of committed instruction (Count)
system.cpu.commit.committedInstType_0::MemRead      1384372      6.97%     66.97% # Class of committed instruction (Count)
system.cpu.commit.committedInstType_0::MemWrite         5065      0.03%     67.00% # Class of committed instruction (Count)
system.cpu.commit.committedInstType_0::FloatMemRead      4456502     22.44%     89.44% # Class of committed instruction (Count)
system.cpu.commit.committedInstType_0::FloatMemWrite      2097579     10.56%    100.00% # Class of committed instruction (Count)
system.cpu.commit.committedInstType_0::IprAccess            0      0.00%    100.00% # Class of committed instruction (Count)
system.cpu.commit.committedInstType_0::InstPrefetch            0      0.00%    100.00% # Class of committed instruction (Count)
system.cpu.commit.committedInstType_0::total     19857907                       # Class of committed instruction (Count)
system.cpu.commit.commitEligibleSamples       1564941                       # number cycles where commit BW limit reached (Cycle)
system.cpu.dcache.demandHits::cpu.data        8145112                       # number of demand (read+write) hits (Count)
system.cpu.dcache.demandHits::total           8145112                       # number of demand (read+write) hits (Count)
system.cpu.dcache.overallHits::cpu.data       8145112                       # number of overall hits (Count)
system.cpu.dcache.overallHits::total          8145112                       # number of overall hits (Count)
system.cpu.dcache.demandMisses::cpu.data        59832                       # number of demand (read+write) misses (Count)
system.cpu.dcache.demandMisses::total           59832                       # number of demand (read+write) misses (Count)
system.cpu.dcache.overallMisses::cpu.data        59832                       # number of overall misses (Count)
system.cpu.dcache.overallMisses::total          59832                       # number of overall misses (Count)
system.cpu.dcache.demandMissLatency::cpu.data   3126699999                       # number of demand (read+write) miss ticks (Tick)
system.cpu.dcache.demandMissLatency::total   3126699999                       # number of demand (read+write) miss ticks (Tick)
system.cpu.dcache.overallMissLatency::cpu.data   3126699999                       # number of overall miss ticks (Tick)
system.cpu.dcache.overallMissLatency::total   3126699999                       # number of overall miss ticks (Tick)
system.cpu.dcache.demandAccesses::cpu.data      8204944                       # number of demand (read+write) accesses (Count)
system.cpu.dcache.demandAccesses::total       8204944                       # number of demand (read+write) accesses (Count)
system.cpu.dcache.overallAccesses::cpu.data      8204944                       # number of overall (read+write) accesses (Count)
system.cpu.dcache.overallAccesses::total      8204944                       # number of overall (read+write) accesses (Count)
system.cpu.dcache.demandMissRate::cpu.data     0.007292                       # miss rate for demand accesses (Ratio)
system.cpu.dcache.demandMissRate::total      0.007292                       # miss rate for demand accesses (Ratio)
system.cpu.dcache.overallMissRate::cpu.data     0.007292                       # miss rate for overall accesses (Ratio)
system.cpu.dcache.overallMissRate::total     0.007292                       # miss rate for overall accesses (Ratio)
system.cpu.dcache.demandAvgMissLatency::cpu.data 52257.989019                       # average overall miss latency in ticks ((Tick/Count))
system.cpu.dcache.demandAvgMissLatency::total 52257.989019                       # average overall miss latency in ticks ((Tick/Count))
system.cpu.dcache.overallAvgMissLatency::cpu.data 52257.989019                       # average overall miss latency ((Tick/Count))
system.cpu.dcache.overallAvgMissLatency::total 52257.989019                       # average overall miss latency ((Tick/Count))
system.cpu.dcache.blockedCycles::no_mshrs        14634                       # number of cycles access was blocked (Cycle)
system.cpu.dcache.blockedCycles::no_targets            0                       # number of cycles access was blocked (Cycle)
system.cpu.dcache.blockedCauses::no_mshrs          480                       # number of times access was blocked (Count)
system.cpu.dcache.blockedCauses::no_targets            0                       # number of times access was blocked (Count)
system.cpu.dcache.avgBlocked::no_mshrs      30.487500                       # average number of cycles each access was blocked ((Cycle/Count))
system.cpu.dcache.avgBlocked::no_targets          nan                       # average number of cycles each access was blocked ((Cycle/Count))
system.cpu.dcache.writebacks::writebacks        12354                       # number of writebacks (Count)
system.cpu.dcache.writebacks::total             12354                       # number of writebacks (Count)
system.cpu.dcache.demandMshrHits::cpu.data        28032                       # number of demand (read+write) MSHR hits (Count)
system.cpu.dcache.demandMshrHits::total         28032                       # number of demand (read+write) MSHR hits (Count)
system.cpu.dcache.overallMshrHits::cpu.data        28032                       # number of overall MSHR hits (Count)
system.cpu.dcache.overallMshrHits::total        28032                       # number of overall MSHR hits (Count)
system.cpu.dcache.demandMshrMisses::cpu.data        31800                       # number of demand (read+write) MSHR misses (Count)
system.cpu.dcache.demandMshrMisses::total        31800                       # number of demand (read+write) MSHR misses (Count)
system.cpu.dcache.overallMshrMisses::cpu.data        31800                       # number of overall MSHR misses (Count)
system.cpu.dcache.overallMshrMisses::total        31800                       # number of overall MSHR misses (Count)
system.cpu.dcache.demandMshrMissLatency::cpu.data   1691314999                       # number of demand (read+write) MSHR miss ticks (Tick)
system.cpu.dcache.demandMshrMissLatency::total   1691314999                       # number of demand (read+write) MSHR miss ticks (Tick)
system.cpu.dcache.overallMshrMissLatency::cpu.data   1691314999                       # number of overall MSHR miss ticks (Tick)
system.cpu.dcache.overallMshrMissLatency::total   1691314999                       # number of overall MSHR miss ticks (Tick)
system.cpu.dcache.demandMshrMissRate::cpu.data     0.003876                       # mshr miss ratio for demand accesses (Ratio)
system.cpu.dcache.demandMshrMissRate::total     0.003876                       # mshr miss ratio for demand accesses (Ratio)
system.cpu.dcache.overallMshrMissRate::cpu.data     0.003876                       # mshr miss ratio for overall accesses (Ratio)
system.cpu.dcache.overallMshrMissRate::total     0.003876                       # mshr miss ratio for overall accesses (Ratio)
system.cpu.dcache.demandAvgMshrMissLatency::cpu.data 53186.006258                       # average overall mshr miss latency ((Tick/Count))
system.cpu.dcache.demandAvgMshrMissLatency::total 53186.006258                       # average overall mshr miss latency ((Tick/Count))
system.cpu.dcache.overallAvgMshrMissLatency::cpu.data 53186.006258                       # average overall mshr miss latency ((Tick/Count))
system.cpu.dcache.overallAvgMshrMissLatency::total 53186.006258                       # average overall mshr miss latency ((Tick/Count))
system.cpu.dcache.replacements                  30776                       # number of replacements (Count)
system.cpu.dcache.ReadReq.hits::cpu.data      6042609                       # number of ReadReq hits (Count)
system.cpu.dcache.ReadReq.hits::total         6042609                       # number of ReadReq hits (Count)
system.cpu.dcache.ReadReq.misses::cpu.data        59690                       # number of ReadReq misses (Count)
system.cpu.dcache.ReadReq.misses::total         59690                       # number of ReadReq misses (Count)
system.cpu.dcache.ReadReq.missLatency::cpu.data   3119216000                       # number of ReadReq miss ticks (Tick)
system.cpu.dcache.ReadReq.missLatency::total   3119216000                       # number of ReadReq miss ticks (Tick)
system.cpu.dcache.ReadReq.accesses::cpu.data      6102299                       # number of ReadReq accesses(hits+misses) (Count)
system.cpu.dcache.ReadReq.accesses::total      6102299                       # number of ReadReq accesses(hits+misses) (Count)
system.cpu.dcache.ReadReq.missRate::cpu.data     0.009782                       # miss rate for ReadReq accesses (Ratio)
system.cpu.dcache.ReadReq.missRate::total     0.009782                       # miss rate for ReadReq accesses (Ratio)
system.cpu.dcache.ReadReq.avgMissLatency::cpu.data 52256.927459                       # average ReadReq miss latency ((Tick/Count))
system.cpu.dcache.ReadReq.avgMissLatency::total 52256.927459                       # average ReadReq miss latency ((Tick/Count))
system.cpu.dcache.ReadReq.mshrHits::cpu.data        27998                       # number of ReadReq MSHR hits (Count)
system.cpu.dcache.ReadReq.mshrHits::total        27998                       # number of ReadReq MSHR hits (Count)
system.cpu.dcache.ReadReq.mshrMisses::cpu.data        31692                       # number of ReadReq MSHR misses (Count)
system.cpu.dcache.ReadReq.mshrMisses::total        31692                       # number of ReadReq MSHR misses (Count)
system.cpu.dcache.ReadReq.mshrMissLatency::cpu.data   1684878000                       # number of ReadReq MSHR miss ticks (Tick)
system.cpu.dcache.ReadReq.mshrMissLatency::total   1684878000                       # number of ReadReq MSHR miss ticks (Tick)
system.cpu.dcache.ReadReq.mshrMissRate::cpu.data     0.005193                       # mshr miss rate for ReadReq accesses (Ratio)
system.cpu.dcache.ReadReq.mshrMissRate::total     0.005193                       # mshr miss rate for ReadReq accesses (Ratio)
system.cpu.dcache.ReadReq.avgMshrMissLatency::cpu.data 53164.142370                       # average ReadReq mshr miss latency ((Tick/Count))
system.cpu.dcache.ReadReq.avgMshrMissLatency::total 53164.142370                       # average ReadReq mshr miss latency ((Tick/Count))
system.cpu.dcache.WriteReq.hits::cpu.data      2102503                       # number of WriteReq hits (Count)
system.cpu.dcache.WriteReq.hits::total        2102503                       # number of WriteReq hits (Count)
system.cpu.dcache.WriteReq.misses::cpu.data          142                       # number of WriteReq misses (Count)
system.cpu.dcache.WriteReq.misses::total          142                       # number of WriteReq misses (Count)
system.cpu.dcache.WriteReq.missLatency::cpu.data      7483999                       # number of WriteReq miss ticks (Tick)
system.cpu.dcache.WriteReq.missLatency::total      7483999                       # number of WriteReq miss ticks (Tick)
system.cpu.dcache.WriteReq.accesses::cpu.data      2102645                       # number of WriteReq accesses(hits+misses) (Count)
system.cpu.dcache.WriteReq.accesses::total      2102645                       # number of WriteReq accesses(hits+misses) (Count)
system.cpu.dcache.WriteReq.missRate::cpu.data     0.000068                       # miss rate for WriteReq accesses (Ratio)
system.cpu.dcache.WriteReq.missRate::total     0.000068                       # miss rate for WriteReq accesses (Ratio)
system.cpu.dcache.WriteReq.avgMissLatency::cpu.data 52704.218310                       # average WriteReq miss latency ((Tick/Count))
system.cpu.dcache.WriteReq.avgMissLatency::total 52704.218310                       # average WriteReq miss latency ((Tick/Count))
system.cpu.dcache.WriteReq.mshrHits::cpu.data           34                       # number of WriteReq MSHR hits (Count)
system.cpu.dcache.WriteReq.mshrHits::total           34                       # number of WriteReq MSHR hits (Count)
system.cpu.dcache.WriteReq.mshrMisses::cpu.data          108                       # number of WriteReq MSHR misses (Count)
system.cpu.dcache.WriteReq.mshrMisses::total          108                       # number of WriteReq MSHR misses (Count)
system.cpu.dcache.WriteReq.mshrMissLatency::cpu.data      6436999                       # number of WriteReq MSHR miss ticks (Tick)
system.cpu.dcache.WriteReq.mshrMissLatency::total      6436999                       # number of WriteReq MSHR miss ticks (Tick)
system.cpu.dcache.WriteReq.mshrMissRate::cpu.data     0.000051                       # mshr miss rate for WriteReq accesses (Ratio)
system.cpu.dcache.WriteReq.mshrMissRate::total     0.000051                       # mshr miss rate for WriteReq accesses (Ratio)
system.cpu.dcache.WriteReq.avgMshrMissLatency::cpu.data 59601.842593                       # average WriteReq mshr miss latency ((Tick/Count))
system.cpu.dcache.WriteReq.avgMshrMissLatency::total 59601.842593                       # average WriteReq mshr miss latency ((Tick/Count))
system.cpu.dcache.power_state.pwrStateResidencyTicks::UNDEFINED   7607894000                       # Cumulative time (in ticks) in various power states (Tick)
system.cpu.dcache.tags.tagsInUse           997.541906                       # Average ticks per tags in use ((Tick/Count))
system.cpu.dcache.tags.totalRefs              8176912                       # Total number of references to valid blocks. (Count)
system.cpu.dcache.tags.sampledRefs              31800                       # Sample count of references to valid blocks. (Count)
system.cpu.dcache.tags.avgRefs             257.135597                       # Average number of references to valid blocks. ((Count/Count))
system.cpu.dcache.tags.warmupTick              150000                       # The tick when the warmup percentage was hit. (Tick)
system.cpu.dcache.tags.occupancies::cpu.data   997.541906                       # Average occupied blocks per tick, per requestor ((Count/Tick))
system.cpu.dcache.tags.avgOccs::cpu.data     0.974162                       # Average percentage of cache occupancy ((Ratio/Tick))
system.cpu.dcache.tags.avgOccs::total        0.974162                       # Average percentage of cache occupancy ((Ratio/Tick))
system.cpu.dcache.tags.occupanciesTaskId::1024         1024                       # Occupied blocks per task id (Count)
system.cpu.dcache.tags.ageTaskId_1024::0           61                       # Occupied blocks per task id, per block age (Count)
system.cpu.dcache.tags.ageTaskId_1024::1          114                       # Occupied blocks per task id, per block age (Count)
system.cpu.dcache.tags.ageTaskId_1024::2          107                       # Occupied blocks per task id, per block age (Count)
system.cpu.dcache.tags.ageTaskId_1024::3          742                       # Occupied blocks per task id, per block age (Count)
system.cpu.dcache.tags.ratioOccsTaskId::1024            1                       # Ratio of occupied blocks and all blocks, per task id (Ratio)
system.cpu.dcache.tags.tagAccesses           16441688                       # Number of tag accesses (Count)
system.cpu.dcache.tags.dataAccesses          16441688                       # Number of data accesses (Count)
system.cpu.dcache.tags.power_state.pwrStateResidencyTicks::UNDEFINED   7607894000                       # Cumulative time (in ticks) in various power states (Tick)
system.cpu.decode.idleCycles                   400297                       # Number of cycles decode is idle (Cycle)
system.cpu.decode.blockedCycles               4699715                       # Number of cycles decode is blocked (Cycle)
system.cpu.decode.runCycles                   1458262                       # Number of cycles decode is running (Cycle)
system.cpu.decode.unblockCycles               1038966                       # Number of cycles decode is unblocking (Cycle)
system.cpu.decode.squashCycles                    986                       # Number of cycles decode is squashing (Cycle)
system.cpu.decode.branchResolved               263442                       # Number of times decode resolved a branch (Count)
system.cpu.decode.branchMispred                   227                       # Number of times decode detected a branch misprediction (Count)
system.cpu.decode.decodedInsts               19894556                       # Number of instructions handled by decode (Count)
system.cpu.decode.squashedInsts                  1056                       # Number of squashed instructions handled by decode (Count)
system.cpu.dtb_walker_cache.blockedCycles::no_mshrs            0                       # number of cycles access was blocked (Cycle)
system.cpu.dtb_walker_cache.blockedCycles::no_targets            0                       # number of cycles access was blocked (Cycle)
system.cpu.dtb_walker_cache.blockedCauses::no_mshrs            0                       # number of times access was blocked (Count)
system.cpu.dtb_walker_cache.blockedCauses::no_targets            0                       # number of times access was blocked (Count)
system.cpu.dtb_walker_cache.avgBlocked::no_mshrs          nan                       # average number of cycles each access was blocked ((Cycle/Count))
system.cpu.dtb_walker_cache.avgBlocked::no_targets          nan                       # average number of cycles each access was blocked ((Cycle/Count))
system.cpu.dtb_walker_cache.replacements            0                       # number of replacements (Count)
system.cpu.dtb_walker_cache.power_state.pwrStateResidencyTicks::UNDEFINED   7607894000                       # Cumulative time (in ticks) in various power states (Tick)
system.cpu.dtb_walker_cache.tags.tagsInUse            0                       # Average ticks per tags in use ((Tick/Count))
system.cpu.dtb_walker_cache.tags.totalRefs            0                       # Total number of references to valid blocks. (Count)
system.cpu.dtb_walker_cache.tags.sampledRefs            0                       # Sample count of references to valid blocks. (Count)
system.cpu.dtb_walker_cache.tags.avgRefs          nan                       # Average number of references to valid blocks. ((Count/Count))
system.cpu.dtb_walker_cache.tags.warmupTick            0                       # The tick when the warmup percentage was hit. (Tick)
system.cpu.dtb_walker_cache.tags.tagAccesses            0                       # Number of tag accesses (Count)
system.cpu.dtb_walker_cache.tags.dataAccesses            0                       # Number of data accesses (Count)
system.cpu.dtb_walker_cache.tags.power_state.pwrStateResidencyTicks::UNDEFINED   7607894000                       # Cumulative time (in ticks) in various power states (Tick)
system.cpu.fetch.icacheStallCycles            1097149                       # Number of cycles fetch is stalled on an Icache miss (Cycle)
system.cpu.fetch.insts                       11615140                       # Number of instructions fetch has processed (Count)
system.cpu.fetch.branches                      298836                       # Number of branches that fetch encountered (Count)
system.cpu.fetch.predictedBranches             263686                       # Number of branches that fetch has predicted taken (Count)
system.cpu.fetch.cycles                       6499510                       # Number of cycles fetch has run and was not squashing or blocked (Cycle)
system.cpu.fetch.squashCycles                    2408                       # Number of cycles fetch has spent squashing (Cycle)
system.cpu.fetch.miscStallCycles                   56                       # Number of cycles fetch has spent waiting on interrupts, or bad addresses, or out of MSHRs (Cycle)
system.cpu.fetch.pendingTrapStallCycles           295                       # Number of stall cycles due to pending traps (Cycle)
system.cpu.fetch.icacheWaitRetryStallCycles           12                       # Number of stall cycles due to full MSHR (Cycle)
system.cpu.fetch.cacheLines                   1087361                       # Number of cache lines fetched (Count)
system.cpu.fetch.icacheSquashes                   436                       # Number of outstanding Icache misses that were squashed (Count)
system.cpu.fetch.nisnDist::samples            7598226                       # Number of instructions fetched each cycle (Total) (Count)
system.cpu.fetch.nisnDist::mean              2.620276                       # Number of instructions fetched each cycle (Total) (Count)
system.cpu.fetch.nisnDist::stdev             3.523423                       # Number of instructions fetched each cycle (Total) (Count)
system.cpu.fetch.nisnDist::underflows               0      0.00%      0.00% # Number of instructions fetched each cycle (Total) (Count)
system.cpu.fetch.nisnDist::0                  4496713     59.18%     59.18% # Number of instructions fetched each cycle (Total) (Count)
system.cpu.fetch.nisnDist::1                   288082      3.79%     62.97% # Number of instructions fetched each cycle (Total) (Count)
system.cpu.fetch.nisnDist::2                   211392      2.78%     65.75% # Number of instructions fetched each cycle (Total) (Count)
system.cpu.fetch.nisnDist::3                    74375      0.98%     66.73% # Number of instructions fetched each cycle (Total) (Count)
system.cpu.fetch.nisnDist::4                    62485      0.82%     67.56% # Number of instructions fetched each cycle (Total) (Count)
system.cpu.fetch.nisnDist::5                    50611      0.67%     68.22% # Number of instructions fetched each cycle (Total) (Count)
system.cpu.fetch.nisnDist::6                   278622      3.67%     71.89% # Number of instructions fetched each cycle (Total) (Count)
system.cpu.fetch.nisnDist::7                   286834      3.78%     75.66% # Number of instructions fetched each cycle (Total) (Count)
system.cpu.fetch.nisnDist::8                  1849112     24.34%    100.00% # Number of instructions fetched each cycle (Total) (Count)
system.cpu.fetch.nisnDist::overflows                0      0.00%    100.00% # Number of instructions fetched each cycle (Total) (Count)
system.cpu.fetch.nisnDist::min_value                0                       # Number of instructions fetched each cycle (Total) (Count)
system.cpu.fetch.nisnDist::max_value                8                       # Number of instructions fetched each cycle (Total) (Count)
system.cpu.fetch.nisnDist::total              7598226                       # Number of instructions fetched each cycle (Total) (Count)
system.cpu.fetch.branchRate                  0.039280                       # Number of branch fetches per cycle (Ratio)
system.cpu.fetch.rate                        1.526722                       # Number of inst fetches per cycle ((Count/Cycle))
system.cpu.icache.demandHits::cpu.inst        1086766                       # number of demand (read+write) hits (Count)
system.cpu.icache.demandHits::total           1086766                       # number of demand (read+write) hits (Count)
system.cpu.icache.overallHits::cpu.inst       1086766                       # number of overall hits (Count)
system.cpu.icache.overallHits::total          1086766                       # number of overall hits (Count)
system.cpu.icache.demandMisses::cpu.inst          595                       # number of demand (read+write) misses (Count)
system.cpu.icache.demandMisses::total             595                       # number of demand (read+write) misses (Count)
system.cpu.icache.overallMisses::cpu.inst          595                       # number of overall misses (Count)
system.cpu.icache.overallMisses::total            595                       # number of overall misses (Count)
system.cpu.icache.demandMissLatency::cpu.inst     34681999                       # number of demand (read+write) miss ticks (Tick)
system.cpu.icache.demandMissLatency::total     34681999                       # number of demand (read+write) miss ticks (Tick)
system.cpu.icache.overallMissLatency::cpu.inst     34681999                       # number of overall miss ticks (Tick)
system.cpu.icache.overallMissLatency::total     34681999                       # number of overall miss ticks (Tick)
system.cpu.icache.demandAccesses::cpu.inst      1087361                       # number of demand (read+write) accesses (Count)
system.cpu.icache.demandAccesses::total       1087361                       # number of demand (read+write) accesses (Count)
system.cpu.icache.overallAccesses::cpu.inst      1087361                       # number of overall (read+write) accesses (Count)
system.cpu.icache.overallAccesses::total      1087361                       # number of overall (read+write) accesses (Count)
system.cpu.icache.demandMissRate::cpu.inst     0.000547                       # miss rate for demand accesses (Ratio)
system.cpu.icache.demandMissRate::total      0.000547                       # miss rate for demand accesses (Ratio)
system.cpu.icache.overallMissRate::cpu.inst     0.000547                       # miss rate for overall accesses (Ratio)
system.cpu.icache.overallMissRate::total     0.000547                       # miss rate for overall accesses (Ratio)
system.cpu.icache.demandAvgMissLatency::cpu.inst 58289.073950                       # average overall miss latency in ticks ((Tick/Count))
system.cpu.icache.demandAvgMissLatency::total 58289.073950                       # average overall miss latency in ticks ((Tick/Count))
system.cpu.icache.overallAvgMissLatency::cpu.inst 58289.073950                       # average overall miss latency ((Tick/Count))
system.cpu.icache.overallAvgMissLatency::total 58289.073950                       # average overall miss latency ((Tick/Count))
system.cpu.icache.blockedCycles::no_mshrs           37                       # number of cycles access was blocked (Cycle)
system.cpu.icache.blockedCycles::no_targets            0                       # number of cycles access was blocked (Cycle)
system.cpu.icache.blockedCauses::no_mshrs            4                       # number of times access was blocked (Count)
system.cpu.icache.blockedCauses::no_targets            0                       # number of times access was blocked (Count)
system.cpu.icache.avgBlocked::no_mshrs       9.250000                       # average number of cycles each access was blocked ((Cycle/Count))
system.cpu.icache.avgBlocked::no_targets          nan                       # average number of cycles each access was blocked ((Cycle/Count))
system.cpu.icache.writebacks::writebacks          205                       # number of writebacks (Count)
system.cpu.icache.writebacks::total               205                       # number of writebacks (Count)
system.cpu.icache.demandMshrHits::cpu.inst          137                       # number of demand (read+write) MSHR hits (Count)
system.cpu.icache.demandMshrHits::total           137                       # number of demand (read+write) MSHR hits (Count)
system.cpu.icache.overallMshrHits::cpu.inst          137                       # number of overall MSHR hits (Count)
system.cpu.icache.overallMshrHits::total          137                       # number of overall MSHR hits (Count)
system.cpu.icache.demandMshrMisses::cpu.inst          458                       # number of demand (read+write) MSHR misses (Count)
system.cpu.icache.demandMshrMisses::total          458                       # number of demand (read+write) MSHR misses (Count)
system.cpu.icache.overallMshrMisses::cpu.inst          458                       # number of overall MSHR misses (Count)
system.cpu.icache.overallMshrMisses::total          458                       # number of overall MSHR misses (Count)
system.cpu.icache.demandMshrMissLatency::cpu.inst     28347999                       # number of demand (read+write) MSHR miss ticks (Tick)
system.cpu.icache.demandMshrMissLatency::total     28347999                       # number of demand (read+write) MSHR miss ticks (Tick)
system.cpu.icache.overallMshrMissLatency::cpu.inst     28347999                       # number of overall MSHR miss ticks (Tick)
system.cpu.icache.overallMshrMissLatency::total     28347999                       # number of overall MSHR miss ticks (Tick)
system.cpu.icache.demandMshrMissRate::cpu.inst     0.000421                       # mshr miss ratio for demand accesses (Ratio)
system.cpu.icache.demandMshrMissRate::total     0.000421                       # mshr miss ratio for demand accesses (Ratio)
system.cpu.icache.overallMshrMissRate::cpu.inst     0.000421                       # mshr miss ratio for overall accesses (Ratio)
system.cpu.icache.overallMshrMissRate::total     0.000421                       # mshr miss ratio for overall accesses (Ratio)
system.cpu.icache.demandAvgMshrMissLatency::cpu.inst 61895.194323                       # average overall mshr miss latency ((Tick/Count))
system.cpu.icache.demandAvgMshrMissLatency::total 61895.194323                       # average overall mshr miss latency ((Tick/Count))
system.cpu.icache.overallAvgMshrMissLatency::cpu.inst 61895.194323                       # average overall mshr miss latency ((Tick/Count))
system.cpu.icache.overallAvgMshrMissLatency::total 61895.194323                       # average overall mshr miss latency ((Tick/Count))
system.cpu.icache.replacements                    205                       # number of replacements (Count)
system.cpu.icache.ReadReq.hits::cpu.inst      1086766                       # number of ReadReq hits (Count)
system.cpu.icache.ReadReq.hits::total         1086766                       # number of ReadReq hits (Count)
system.cpu.icache.ReadReq.misses::cpu.inst          595                       # number of ReadReq misses (Count)
system.cpu.icache.ReadReq.misses::total           595                       # number of ReadReq misses (Count)
system.cpu.icache.ReadReq.missLatency::cpu.inst     34681999                       # number of ReadReq miss ticks (Tick)
system.cpu.icache.ReadReq.missLatency::total     34681999                       # number of ReadReq miss ticks (Tick)
system.cpu.icache.ReadReq.accesses::cpu.inst      1087361                       # number of ReadReq accesses(hits+misses) (Count)
system.cpu.icache.ReadReq.accesses::total      1087361                       # number of ReadReq accesses(hits+misses) (Count)
system.cpu.icache.ReadReq.missRate::cpu.inst     0.000547                       # miss rate for ReadReq accesses (Ratio)
system.cpu.icache.ReadReq.missRate::total     0.000547                       # miss rate for ReadReq accesses (Ratio)
system.cpu.icache.ReadReq.avgMissLatency::cpu.inst 58289.073950                       # average ReadReq miss latency ((Tick/Count))
system.cpu.icache.ReadReq.avgMissLatency::total 58289.073950                       # average ReadReq miss latency ((Tick/Count))
system.cpu.icache.ReadReq.mshrHits::cpu.inst          137                       # number of ReadReq MSHR hits (Count)
system.cpu.icache.ReadReq.mshrHits::total          137                       # number of ReadReq MSHR hits (Count)
system.cpu.icache.ReadReq.mshrMisses::cpu.inst          458                       # number of ReadReq MSHR misses (Count)
system.cpu.icache.ReadReq.mshrMisses::total          458                       # number of ReadReq MSHR misses (Count)
system.cpu.icache.ReadReq.mshrMissLatency::cpu.inst     28347999                       # number of ReadReq MSHR miss ticks (Tick)
system.cpu.icache.ReadReq.mshrMissLatency::total     28347999                       # number of ReadReq MSHR miss ticks (Tick)
system.cpu.icache.ReadReq.mshrMissRate::cpu.inst     0.000421                       # mshr miss rate for ReadReq accesses (Ratio)
system.cpu.icache.ReadReq.mshrMissRate::total     0.000421                       # mshr miss rate for ReadReq accesses (Ratio)
system.cpu.icache.ReadReq.avgMshrMissLatency::cpu.inst 61895.194323                       # average ReadReq mshr miss latency ((Tick/Count))
system.cpu.icache.ReadReq.avgMshrMissLatency::total 61895.194323                       # average ReadReq mshr miss latency ((Tick/Count))
system.cpu.icache.power_state.pwrStateResidencyTicks::UNDEFINED   7607894000                       # Cumulative time (in ticks) in various power states (Tick)
system.cpu.icache.tags.tagsInUse           246.640952                       # Average ticks per tags in use ((Tick/Count))
system.cpu.icache.tags.totalRefs              1087223                       # Total number of references to valid blocks. (Count)
system.cpu.icache.tags.sampledRefs                457                       # Sample count of references to valid blocks. (Count)
system.cpu.icache.tags.avgRefs            2379.043764                       # Average number of references to valid blocks. ((Count/Count))
system.cpu.icache.tags.warmupTick               77000                       # The tick when the warmup percentage was hit. (Tick)
system.cpu.icache.tags.occupancies::cpu.inst   246.640952                       # Average occupied blocks per tick, per requestor ((Count/Tick))
system.cpu.icache.tags.avgOccs::cpu.inst     0.963441                       # Average percentage of cache occupancy ((Ratio/Tick))
system.cpu.icache.tags.avgOccs::total        0.963441                       # Average percentage of cache occupancy ((Ratio/Tick))
system.cpu.icache.tags.occupanciesTaskId::1024          252                       # Occupied blocks per task id (Count)
system.cpu.icache.tags.ageTaskId_1024::0           42                       # Occupied blocks per task id, per block age (Count)
system.cpu.icache.tags.ageTaskId_1024::3          210                       # Occupied blocks per task id, per block age (Count)
system.cpu.icache.tags.ratioOccsTaskId::1024     0.984375                       # Ratio of occupied blocks and all blocks, per task id (Ratio)
system.cpu.icache.tags.tagAccesses            2175179                       # Number of tag accesses (Count)
system.cpu.icache.tags.dataAccesses           2175179                       # Number of data accesses (Count)
system.cpu.icache.tags.power_state.pwrStateResidencyTicks::UNDEFINED   7607894000                       # Cumulative time (in ticks) in various power states (Tick)
system.cpu.iew.idleCycles                           0                       # Number of cycles IEW is idle (Cycle)
system.cpu.iew.squashCycles                       986                       # Number of cycles IEW is squashing (Cycle)
system.cpu.iew.blockCycles                       3330                       # Number of cycles IEW is blocking (Cycle)
system.cpu.iew.unblockCycles                   114308                       # Number of cycles IEW is unblocking (Cycle)
system.cpu.iew.dispatchedInsts               19885162                       # Number of instructions dispatched to IQ (Count)
system.cpu.iew.dispSquashedInsts                   84                       # Number of squashed instructions skipped by dispatch (Count)
system.cpu.iew.dispLoadInsts                  5846762                       # Number of dispatched load instructions (Count)
system.cpu.iew.dispStoreInsts                 2105068                       # Number of dispatched store instructions (Count)
system.cpu.iew.dispNonSpecInsts                    25                       # Number of dispatched non-speculative instructions (Count)
system.cpu.iew.iqFullEvents                        15                       # Number of times the IQ has become full, causing a stall (Count)
system.cpu.iew.lsqFullEvents                   114264                       # Number of times the LSQ has become full, causing a stall (Count)
system.cpu.iew.memOrderViolationEvents            260                       # Number of memory order violations (Count)
system.cpu.iew.predictedTakenIncorrect            315                       # Number of branches that were predicted taken incorrectly (Count)
system.cpu.iew.predictedNotTakenIncorrect          551                       # Number of branches that were predicted not taken incorrectly (Count)
system.cpu.iew.branchMispredicts                  866                       # Number of branch mispredicts detected at execute (Count)
system.cpu.iew.instsToCommit                 19873652                       # Cumulative count of insts sent to commit (Count)
system.cpu.iew.writebackCount                19872983                       # Cumulative count of insts written-back (Count)
system.cpu.iew.producerInst                  11790602                       # Number of instructions producing a value (Count)
system.cpu.iew.consumerInst                  16350981                       # Number of instructions consuming a value (Count)
system.cpu.iew.wbRate                        2.612153                       # Insts written-back per cycle ((Count/Cycle))
system.cpu.iew.wbFanout                      0.721094                       # Average fanout of values written-back ((Count/Count))
system.cpu.interrupts.clk_domain.clock          16000                       # Clock period in ticks (Tick)
system.cpu.itb_walker_cache.blockedCycles::no_mshrs            0                       # number of cycles access was blocked (Cycle)
system.cpu.itb_walker_cache.blockedCycles::no_targets            0                       # number of cycles access was blocked (Cycle)
system.cpu.itb_walker_cache.blockedCauses::no_mshrs            0                       # number of times access was blocked (Count)
system.cpu.itb_walker_cache.blockedCauses::no_targets            0                       # number of times access was blocked (Count)
system.cpu.itb_walker_cache.avgBlocked::no_mshrs          nan                       # average number of cycles each access was blocked ((Cycle/Count))
system.cpu.itb_walker_cache.avgBlocked::no_targets          nan                       # average number of cycles each access was blocked ((Cycle/Count))
system.cpu.itb_walker_cache.replacements            0                       # number of replacements (Count)
system.cpu.itb_walker_cache.power_state.pwrStateResidencyTicks::UNDEFINED   7607894000                       # Cumulative time (in ticks) in various power states (Tick)
system.cpu.itb_walker_cache.tags.tagsInUse            0                       # Average ticks per tags in use ((Tick/Count))
system.cpu.itb_walker_cache.tags.totalRefs            0                       # Total number of references to valid blocks. (Count)
system.cpu.itb_walker_cache.tags.sampledRefs            0                       # Sample count of references to valid blocks. (Count)
system.cpu.itb_walker_cache.tags.avgRefs          nan                       # Average number of references to valid blocks. ((Count/Count))
system.cpu.itb_walker_cache.tags.warmupTick            0                       # The tick when the warmup percentage was hit. (Tick)
system.cpu.itb_walker_cache.tags.tagAccesses            0                       # Number of tag accesses (Count)
system.cpu.itb_walker_cache.tags.dataAccesses            0                       # Number of data accesses (Count)
system.cpu.itb_walker_cache.tags.power_state.pwrStateResidencyTicks::UNDEFINED   7607894000                       # Cumulative time (in ticks) in various power states (Tick)
system.cpu.lsq0.forwLoads                        4280                       # Number of loads that had data forwarded from stores (Count)
system.cpu.lsq0.squashedLoads                    5888                       # Number of loads squashed (Count)
system.cpu.lsq0.ignoredResponses                    1                       # Number of memory responses ignored because the instruction is squashed (Count)
system.cpu.lsq0.memOrderViolation                 260                       # Number of memory ordering violations (Count)
system.cpu.lsq0.squashedStores                   2424                       # Number of stores squashed (Count)
system.cpu.lsq0.rescheduledLoads               168532                       # Number of loads that were rescheduled (Count)
system.cpu.lsq0.blockedByCache                    451                       # Number of times an access to memory failed due to the cache being blocked (Count)
system.cpu.lsq0.loadToUse::samples            5840874                       # Distribution of cycle latency between the first time a load is issued and its completion (Unspecified)
system.cpu.lsq0.loadToUse::mean              3.958642                       # Distribution of cycle latency between the first time a load is issued and its completion (Unspecified)
system.cpu.lsq0.loadToUse::stdev             6.194086                       # Distribution of cycle latency between the first time a load is issued and its completion (Unspecified)
system.cpu.lsq0.loadToUse::0-9                5761903     98.65%     98.65% # Distribution of cycle latency between the first time a load is issued and its completion (Unspecified)
system.cpu.lsq0.loadToUse::10-19                20476      0.35%     99.00% # Distribution of cycle latency between the first time a load is issued and its completion (Unspecified)
system.cpu.lsq0.loadToUse::20-29                 9143      0.16%     99.16% # Distribution of cycle latency between the first time a load is issued and its completion (Unspecified)
system.cpu.lsq0.loadToUse::30-39                 3362      0.06%     99.21% # Distribution of cycle latency between the first time a load is issued and its completion (Unspecified)
system.cpu.lsq0.loadToUse::40-49                 7759      0.13%     99.35% # Distribution of cycle latency between the first time a load is issued and its completion (Unspecified)
system.cpu.lsq0.loadToUse::50-59                27433      0.47%     99.82% # Distribution of cycle latency between the first time a load is issued and its completion (Unspecified)
system.cpu.lsq0.loadToUse::60-69                 5315      0.09%     99.91% # Distribution of cycle latency between the first time a load is issued and its completion (Unspecified)
[...]
system.mem_ctrls.dram.bwWrite::total        103925738                       # Write bandwidth from this memory ((Byte/Second))
system.mem_ctrls.dram.bwTotal::writebacks    103925738                       # Total bandwidth to/from this memory ((Byte/Second))
system.mem_ctrls.dram.bwTotal::cpu.inst       3827603                       # Total bandwidth to/from this memory ((Byte/Second))
system.mem_ctrls.dram.bwTotal::cpu.data     267511614                       # Total bandwidth to/from this memory ((Byte/Second))
system.mem_ctrls.dram.bwTotal::total        375264955                       # Total bandwidth to/from this memory ((Byte/Second))
system.mem_ctrls.dram.readBursts                26695                       # Number of DRAM read bursts (Count)
system.mem_ctrls.dram.writeBursts               10541                       # Number of DRAM write bursts (Count)
system.mem_ctrls.dram.perBankRdBursts::0         1677                       # Per bank write bursts (Count)
system.mem_ctrls.dram.perBankRdBursts::1         1601                       # Per bank write bursts (Count)
system.mem_ctrls.dram.perBankRdBursts::2         1763                       # Per bank write bursts (Count)
system.mem_ctrls.dram.perBankRdBursts::3         1595                       # Per bank write bursts (Count)
system.mem_ctrls.dram.perBankRdBursts::4         1595                       # Per bank write bursts (Count)
system.mem_ctrls.dram.perBankRdBursts::5         1603                       # Per bank write bursts (Count)
system.mem_ctrls.dram.perBankRdBursts::6         1845                       # Per bank write bursts (Count)
system.mem_ctrls.dram.perBankRdBursts::7         1826                       # Per bank write bursts (Count)
system.mem_ctrls.dram.perBankRdBursts::8         1698                       # Per bank write bursts (Count)
system.mem_ctrls.dram.perBankRdBursts::9         1594                       # Per bank write bursts (Count)
system.mem_ctrls.dram.perBankRdBursts::10         1674                       # Per bank write bursts (Count)
system.mem_ctrls.dram.perBankRdBursts::11         1551                       # Per bank write bursts (Count)
system.mem_ctrls.dram.perBankRdBursts::12         1666                       # Per bank write bursts (Count)
system.mem_ctrls.dram.perBankRdBursts::13         1594                       # Per bank write bursts (Count)
system.mem_ctrls.dram.perBankRdBursts::14         1807                       # Per bank write bursts (Count)
system.mem_ctrls.dram.perBankRdBursts::15         1606                       # Per bank write bursts (Count)
system.mem_ctrls.dram.perBankWrBursts::0           29                       # Per bank write bursts (Count)
system.mem_ctrls.dram.perBankWrBursts::1           11                       # Per bank write bursts (Count)
system.mem_ctrls.dram.perBankWrBursts::2            7                       # Per bank write bursts (Count)
system.mem_ctrls.dram.perBankWrBursts::3            3                       # Per bank write bursts (Count)
system.mem_ctrls.dram.perBankWrBursts::4            1                       # Per bank write bursts (Count)
system.mem_ctrls.dram.perBankWrBursts::5           10                       # Per bank write bursts (Count)
system.mem_ctrls.dram.perBankWrBursts::6         1246                       # Per bank write bursts (Count)
system.mem_ctrls.dram.perBankWrBursts::7         1355                       # Per bank write bursts (Count)
system.mem_ctrls.dram.perBankWrBursts::8         1331                       # Per bank write bursts (Count)
system.mem_ctrls.dram.perBankWrBursts::9         1223                       # Per bank write bursts (Count)
system.mem_ctrls.dram.perBankWrBursts::10         1284                       # Per bank write bursts (Count)
system.mem_ctrls.dram.perBankWrBursts::11         1236                       # Per bank write bursts (Count)
system.mem_ctrls.dram.perBankWrBursts::12         1332                       # Per bank write bursts (Count)
system.mem_ctrls.dram.perBankWrBursts::13         1289                       # Per bank write bursts (Count)
system.mem_ctrls.dram.perBankWrBursts::14          167                       # Per bank write bursts (Count)
system.mem_ctrls.dram.perBankWrBursts::15           17                       # Per bank write bursts (Count)
system.mem_ctrls.dram.totQLat               232457000                       # Total ticks spent queuing (Tick)
system.mem_ctrls.dram.totBusLat             133475000                       # Total ticks spent in databus transfers (Tick)
system.mem_ctrls.dram.totMemAccLat          732988250                       # Total ticks spent from burst creation until serviced by the DRAM (Tick)
system.mem_ctrls.dram.avgQLat                 8707.89                       # Average queueing delay per DRAM burst ((Tick/Count))
system.mem_ctrls.dram.avgBusLat               5000.00                       # Average bus latency per DRAM burst ((Tick/Count))
system.mem_ctrls.dram.avgMemAccLat           27457.89                       # Average memory access latency per DRAM burst ((Tick/Count))
system.mem_ctrls.dram.readRowHits               22669                       # Number of row buffer hits during reads (Count)
system.mem_ctrls.dram.writeRowHits               9241                       # Number of row buffer hits during writes (Count)
system.mem_ctrls.dram.readRowHitRate            84.92                       # Row buffer hit rate for reads (Ratio)
system.mem_ctrls.dram.writeRowHitRate           87.67                       # Row buffer hit rate for writes (Ratio)
system.mem_ctrls.dram.bytesPerActivate::samples         5323                       # Bytes accessed per row activation (Byte)
system.mem_ctrls.dram.bytesPerActivate::mean   447.579185                       # Bytes accessed per row activation (Byte)
system.mem_ctrls.dram.bytesPerActivate::gmean   292.210596                       # Bytes accessed per row activation (Byte)
system.mem_ctrls.dram.bytesPerActivate::stdev   356.037405                       # Bytes accessed per row activation (Byte)
system.mem_ctrls.dram.bytesPerActivate::0-127          959     18.02%     18.02% # Bytes accessed per row activation (Byte)
system.mem_ctrls.dram.bytesPerActivate::128-255         1237     23.24%     41.25% # Bytes accessed per row activation (Byte)
system.mem_ctrls.dram.bytesPerActivate::256-383          465      8.74%     49.99% # Bytes accessed per row activation (Byte)
system.mem_ctrls.dram.bytesPerActivate::384-511          506      9.51%     59.50% # Bytes accessed per row activation (Byte)
system.mem_ctrls.dram.bytesPerActivate::512-639          368      6.91%     66.41% # Bytes accessed per row activation (Byte)
system.mem_ctrls.dram.bytesPerActivate::640-767          318      5.97%     72.38% # Bytes accessed per row activation (Byte)
system.mem_ctrls.dram.bytesPerActivate::768-895          315      5.92%     78.30% # Bytes accessed per row activation (Byte)
system.mem_ctrls.dram.bytesPerActivate::896-1023          339      6.37%     84.67% # Bytes accessed per row activation (Byte)
system.mem_ctrls.dram.bytesPerActivate::1024-1151          816     15.33%    100.00% # Bytes accessed per row activation (Byte)
system.mem_ctrls.dram.bytesPerActivate::total         5323                       # Bytes accessed per row activation (Byte)
system.mem_ctrls.dram.bytesRead               1708480                       # Total bytes read (Byte)
system.mem_ctrls.dram.bytesWritten             674624                       # Total bytes written (Byte)
system.mem_ctrls.dram.avgRdBW              224.566746                       # Average DRAM read bandwidth in MiBytes/s ((Byte/Second))
system.mem_ctrls.dram.avgWrBW               88.674211                       # Average DRAM write bandwidth in MiBytes/s ((Byte/Second))
system.mem_ctrls.dram.peakBW                 12800.00                       # Theoretical peak bandwidth in MiByte/s ((Byte/Second))
system.mem_ctrls.dram.busUtil                    2.45                       # Data bus utilization in percentage (Ratio)
system.mem_ctrls.dram.busUtilRead                1.75                       # Data bus utilization in percentage for reads (Ratio)
system.mem_ctrls.dram.busUtilWrite               0.69                       # Data bus utilization in percentage for writes (Ratio)
system.mem_ctrls.dram.pageHitRate               85.70                       # Row buffer hit rate, read and write combined (Ratio)
system.mem_ctrls.dram.power_state.pwrStateResidencyTicks::UNDEFINED   7607894000                       # Cumulative time (in ticks) in various power states (Tick)
system.mem_ctrls.dram.rank0.actEnergy        17792880                       # Energy for activate commands per rank (pJ) (Joule)
system.mem_ctrls.dram.rank0.preEnergy         9453345                       # Energy for precharge commands per rank (pJ) (Joule)
system.mem_ctrls.dram.rank0.readEnergy       96418560                       # Energy for read commands per rank (pJ) (Joule)
system.mem_ctrls.dram.rank0.writeEnergy      13895640                       # Energy for write commands per rank (pJ) (Joule)
system.mem_ctrls.dram.rank0.refreshEnergy 600503280.000000                       # Energy for refresh commands per rank (pJ) (Joule)
system.mem_ctrls.dram.rank0.actBackEnergy   1844927550                       # Energy for active background per rank (pJ) (Joule)
system.mem_ctrls.dram.rank0.preBackEnergy   1367808480                       # Energy for precharge background per rank (pJ) (Joule)
system.mem_ctrls.dram.rank0.actPowerDownEnergy            0                       # Energy for active power-down per rank (pJ) (Joule)
system.mem_ctrls.dram.rank0.prePowerDownEnergy            0                       # Energy for precharge power-down per rank (pJ) (Joule)
system.mem_ctrls.dram.rank0.selfRefreshEnergy            0                       # Energy for self refresh per rank (pJ) (Joule)
system.mem_ctrls.dram.rank0.totalEnergy    3950799735                       # Total energy per rank (pJ) (Joule)
system.mem_ctrls.dram.rank0.averagePower   519.302679                       # Core power per rank (mW) (Watt)
system.mem_ctrls.dram.rank0.totalIdleTime            0                       # Total Idle time Per DRAM Rank (Tick)
system.mem_ctrls.dram.rank0.pwrStateTime::IDLE   3535488500                       # Time in different power states (Tick)
system.mem_ctrls.dram.rank0.pwrStateTime::REF    254020000                       # Time in different power states (Tick)
system.mem_ctrls.dram.rank0.pwrStateTime::SREF            0                       # Time in different power states (Tick)
system.mem_ctrls.dram.rank0.pwrStateTime::PRE_PDN            0                       # Time in different power states (Tick)
system.mem_ctrls.dram.rank0.pwrStateTime::ACT   3818385500                       # Time in different power states (Tick)
system.mem_ctrls.dram.rank0.pwrStateTime::ACT_PDN            0                       # Time in different power states (Tick)
system.mem_ctrls.dram.rank1.actEnergy        20234760                       # Energy for activate commands per rank (pJ) (Joule)
system.mem_ctrls.dram.rank1.preEnergy        10747440                       # Energy for precharge commands per rank (pJ) (Joule)
system.mem_ctrls.dram.rank1.readEnergy       94176600                       # Energy for read commands per rank (pJ) (Joule)
system.mem_ctrls.dram.rank1.writeEnergy      41128380                       # Energy for write commands per rank (pJ) (Joule)
system.mem_ctrls.dram.rank1.refreshEnergy 600503280.000000                       # Energy for refresh commands per rank (pJ) (Joule)
system.mem_ctrls.dram.rank1.actBackEnergy   2301504390                       # Energy for active background per rank (pJ) (Joule)
system.mem_ctrls.dram.rank1.preBackEnergy    983322720                       # Energy for precharge background per rank (pJ) (Joule)
system.mem_ctrls.dram.rank1.actPowerDownEnergy            0                       # Energy for active power-down per rank (pJ) (Joule)
system.mem_ctrls.dram.rank1.prePowerDownEnergy            0                       # Energy for precharge power-down per rank (pJ) (Joule)
system.mem_ctrls.dram.rank1.selfRefreshEnergy            0                       # Energy for self refresh per rank (pJ) (Joule)
system.mem_ctrls.dram.rank1.totalEnergy    4051617570                       # Total energy per rank (pJ) (Joule)
system.mem_ctrls.dram.rank1.averagePower   532.554419                       # Core power per rank (mW) (Watt)
system.mem_ctrls.dram.rank1.totalIdleTime            0                       # Total Idle time Per DRAM Rank (Tick)
system.mem_ctrls.dram.rank1.pwrStateTime::IDLE   2534196250                       # Time in different power states (Tick)
system.mem_ctrls.dram.rank1.pwrStateTime::REF    254020000                       # Time in different power states (Tick)
system.mem_ctrls.dram.rank1.pwrStateTime::SREF            0                       # Time in different power states (Tick)
system.mem_ctrls.dram.rank1.pwrStateTime::PRE_PDN            0                       # Time in different power states (Tick)
system.mem_ctrls.dram.rank1.pwrStateTime::ACT   4819677750                       # Time in different power states (Tick)
system.mem_ctrls.dram.rank1.pwrStateTime::ACT_PDN            0                       # Time in different power states (Tick)
system.mem_ctrls.power_state.pwrStateResidencyTicks::UNDEFINED   7607894000                       # Cumulative time (in ticks) in various power states (Tick)
system.membus.transDist::ReadResp               32148                       # Transaction distribution (Count)
system.membus.transDist::WritebackDirty         12354                       # Transaction distribution (Count)
system.membus.transDist::WritebackClean           205                       # Transaction distribution (Count)
system.membus.transDist::CleanEvict             18422                       # Transaction distribution (Count)
system.membus.transDist::ReadExReq                109                       # Transaction distribution (Count)
system.membus.transDist::ReadExResp               109                       # Transaction distribution (Count)
system.membus.transDist::ReadCleanReq             458                       # Transaction distribution (Count)
system.membus.transDist::ReadSharedReq          31691                       # Transaction distribution (Count)
system.membus.pktCount_system.cpu.icache.mem_side_port::system.mem_ctrls.port         1118                       # Packet count per connected requestor and responder (Count)
system.membus.pktCount_system.cpu.icache.mem_side_port::total         1118                       # Packet count per connected requestor and responder (Count)
system.membus.pktCount_system.cpu.dcache.mem_side_port::system.mem_ctrls.port        94376                       # Packet count per connected requestor and responder (Count)
system.membus.pktCount_system.cpu.dcache.mem_side_port::total        94376                       # Packet count per connected requestor and responder (Count)
system.membus.pktCount::total                   95494                       # Packet count per connected requestor and responder (Count)
system.membus.pktSize_system.cpu.icache.mem_side_port::system.mem_ctrls.port        42240                       # Cumulative packet size per connected requestor and responder (Byte)
system.membus.pktSize_system.cpu.icache.mem_side_port::total        42240                       # Cumulative packet size per connected requestor and responder (Byte)
system.membus.pktSize_system.cpu.dcache.mem_side_port::system.mem_ctrls.port      2825856                       # Cumulative packet size per connected requestor and responder (Byte)
system.membus.pktSize_system.cpu.dcache.mem_side_port::total      2825856                       # Cumulative packet size per connected requestor and responder (Byte)
system.membus.pktSize::total                  2868096                       # Cumulative packet size per connected requestor and responder (Byte)
system.membus.snoops                                2                       # Total snoops (Count)
system.membus.snoopTraffic                        128                       # Total snoop traffic (Byte)
system.membus.snoopFanout::samples              32258                       # Request fanout histogram (Count)
system.membus.snoopFanout::mean              0.000124                       # Request fanout histogram (Count)
system.membus.snoopFanout::stdev             0.011135                       # Request fanout histogram (Count)
system.membus.snoopFanout::underflows               0      0.00%      0.00% # Request fanout histogram (Count)
system.membus.snoopFanout::0                    32254     99.99%     99.99% # Request fanout histogram (Count)
system.membus.snoopFanout::1                        4      0.01%    100.00% # Request fanout histogram (Count)
system.membus.snoopFanout::2                        0      0.00%    100.00% # Request fanout histogram (Count)
system.membus.snoopFanout::3                        0      0.00%    100.00% # Request fanout histogram (Count)
system.membus.snoopFanout::4                        0      0.00%    100.00% # Request fanout histogram (Count)
system.membus.snoopFanout::overflows                0      0.00%    100.00% # Request fanout histogram (Count)
system.membus.snoopFanout::min_value                0                       # Request fanout histogram (Count)
system.membus.snoopFanout::max_value                1                       # Request fanout histogram (Count)
system.membus.snoopFanout::total                32258                       # Request fanout histogram (Count)
system.membus.power_state.pwrStateResidencyTicks::UNDEFINED   7607894000                       # Cumulative time (in ticks) in various power states (Tick)
system.membus.reqLayer2.occupancy           113475000                       # Layer occupancy (ticks) (Tick)
system.membus.reqLayer2.utilization               0.0                       # Layer utilization (Ratio)
system.membus.respLayer1.occupancy            2422750                       # Layer occupancy (ticks) (Tick)
system.membus.respLayer1.utilization              0.0                       # Layer utilization (Ratio)
system.membus.respLayer2.occupancy          167449250                       # Layer occupancy (ticks) (Tick)
system.membus.respLayer2.utilization              0.0                       # Layer utilization (Ratio)
system.membus.snoop_filter.totRequests          63239                       # Total number of requests made to the snoop filter. (Count)
system.membus.snoop_filter.hitSingleRequests        30981                       # Number of requests hitting in the snoop filter with a single holder of the requested data. (Count)
system.membus.snoop_filter.hitMultiRequests            4                       # Number of requests hitting in the snoop filter with multiple (>1) holders of the requested data. (Count)
system.membus.snoop_filter.totSnoops                0                       # Total number of snoops made to the snoop filter. (Count)
system.membus.snoop_filter.hitSingleSnoops            0                       # Number of snoops hitting in the snoop filter with a single holder of the requested data. (Count)
system.membus.snoop_filter.hitMultiSnoops            0                       # Number of snoops hitting in the snoop filter with multiple (>1) holders of the requested data. (Count)
system.voltage_domain.voltage                       1                       # Voltage in Volts (Volt)
system.workload.inst.arm                            0                       # number of arm instructions executed (Count)
system.workload.inst.quiesce                        0                       # number of quiesce instructions executed (Count)

---------- End Simulation Statistics   ----------
