
---------- Begin Simulation Statistics ----------
simSeconds                                   0.056647                       # Number of seconds simulated (Second)
simTicks                                  56647245000                       # Number of ticks simulated (Tick)
finalTick                                 56647245000                       # Number of ticks from beginning of simulation (restored from checkpoints and never reset) (Tick)
simFreq                                  1000000000000                       # The number of ticks per simulated second ((Tick/Second))
hostSeconds                                    107.21                       # Real time elapsed on the host (Second)
hostTickRate                                528356504                       # The number of ticks simulated per host second (ticks/s) ((Tick/Second))
hostMemory                                     692220                       # Number of bytes of host memory used (Byte)
simInsts                                     18004506                       # Number of instructions simulated (Count)
simOps                                       31614472                       # Number of ops (including micro ops) simulated (Count)
hostInstRate                                   167930                       # Simulator instruction rate (inst/s) ((Count/Second))
hostOpRate                                     294872                       # Simulator op (including micro ops) rate (op/s) ((Count/Second))
system.clk_domain.clock                          1000                       # Clock period in ticks (Tick)
system.cpu.numCycles                         56647246                       # Number of cpu cycles simulated (Cycle)
system.cpu.numWorkItemsStarted                      0                       # Number of work items this cpu started (Count)
system.cpu.numWorkItemsCompleted                    0                       # Number of work items this cpu completed (Count)
system.cpu.instsAdded                        31688339                       # Number of instructions added to the IQ (excludes non-spec) (Count)
system.cpu.nonSpecInstsAdded                       91                       # Number of non-speculative instructions added to the IQ (Count)
system.cpu.instsIssued                       31683359                       # Number of instructions issued (Count)
system.cpu.squashedInstsIssued                    142                       # Number of squashed instructions issued (Count)
system.cpu.squashedInstsExamined                73944                       # Number of squashed instructions iterated over during squash; mainly for profiling (Count)
system.cpu.squashedOperandsExamined             51635                       # Number of squashed operands that are examined and possibly removed from graph (Count)
system.cpu.squashedNonSpecRemoved                  79                       # Number of squashed non-spec instructions that were removed (Count)
system.cpu.numIssuedDist::samples            56637876                       # Number of insts issued each cycle (Count)
system.cpu.numIssuedDist::mean               0.559402                       # Number of insts issued each cycle (Count)
system.cpu.numIssuedDist::stdev              1.401860                       # Number of insts issued each cycle (Count)
system.cpu.numIssuedDist::underflows                0      0.00%      0.00% # Number of insts issued each cycle (Count)
system.cpu.numIssuedDist::0                  47274330     83.47%     83.47% # Number of insts issued each cycle (Count)
system.cpu.numIssuedDist::1                   1586934      2.80%     86.27% # Number of insts issued each cycle (Count)
system.cpu.numIssuedDist::2                   1004680      1.77%     88.04% # Number of insts issued each cycle (Count)
system.cpu.numIssuedDist::3                   2105468      3.72%     91.76% # Number of insts issued each cycle (Count)
system.cpu.numIssuedDist::4                   2451545      4.33%     96.09% # Number of insts issued each cycle (Count)
system.cpu.numIssuedDist::5                   1368723      2.42%     98.51% # Number of insts issued each cycle (Count)
system.cpu.numIssuedDist::6                    802739      1.42%     99.92% # Number of insts issued each cycle (Count)
system.cpu.numIssuedDist::7                     43224      0.08%    100.00% # Number of insts issued each cycle (Count)
system.cpu.numIssuedDist::8                       233      0.00%    100.00% # Number of insts issued each cycle (Count)
system.cpu.numIssuedDist::overflows                 0      0.00%    100.00% # Number of insts issued each cycle (Count)
system.cpu.numIssuedDist::min_value                 0                       # Number of insts issued each cycle (Count)
system.cpu.numIssuedDist::max_value                 8                       # Number of insts issued each cycle (Count)
system.cpu.numIssuedDist::total              56637876                       # Number of insts issued each cycle (Count)
system.cpu.statFuBusy::No_OpClass                   0      0.00%      0.00% # attempts to use FU when none available (Count)
system.cpu.statFuBusy::IntAlu                   24302     99.81%     99.81% # attempts to use FU when none available (Count)
system.cpu.statFuBusy::IntMult                      0      0.00%     99.81% # attempts to use FU when none available (Count)
system.cpu.statFuBusy::IntDiv                       0      0.00%     99.81% # attempts to use FU when none available (Count)
system.cpu.statFuBusy::FloatAdd                     0      0.00%     99.81% # attempts to use FU when none available (Count)
system.cpu.statFuBusy::FloatCmp                     0      0.00%     99.81% # attempts to use FU when none available (Count)
system.cpu.statFuBusy::FloatCvt                     0      0.00%     99.81% # attempts to use FU when none available (Count)
system.cpu.statFuBusy::FloatMult                    0      0.00%     99.81% # attempts to use FU when none available (Count)
system.cpu.statFuBusy::FloatMultAcc                 0      0.00%     99.81% # attempts to use FU when none available (Count)
system.cpu.statFuBusy::FloatDiv                     0      0.00%     99.81% # attempts to use FU when none available (Count)
system.cpu.statFuBusy::FloatMisc                    0      0.00%     99.81% # attempts to use FU when none available (Count)
system.cpu.statFuBusy::FloatSqrt                    0      0.00%     99.81% # attempts to use FU when none available (Count)
system.cpu.statFuBusy::SimdAdd                      0      0.00%     99.81% # attempts to use FU when none available (Count)
system.cpu.statFuBusy::SimdAddAcc                   0      0.00%     99.81% # attempts to use FU when none available (Count)
system.cpu.statFuBusy::SimdAlu                     10      0.04%     99.85% # attempts to use FU when none available (Count)
system.cpu.statFuBusy::SimdCmp                      0      0.00%     99.85% # attempts to use FU when none available (Count)
system.cpu.statFuBusy::SimdCvt                      2      0.01%     99.86% # attempts to use FU when none available (Count)
system.cpu.statFuBusy::SimdMisc                     1      0.00%     99.86% # attempts to use FU when none available (Count)
system.cpu.statFuBusy::SimdMult                     0      0.00%     99.86% # attempts to use FU when none available (Count)
system.cpu.statFuBusy::SimdMultAcc                  0      0.00%     99.86% # attempts to use FU when none available (Count)
system.cpu.statFuBusy::SimdShift                    0      0.00%     99.86% # attempts to use FU when none available (Count)
system.cpu.statFuBusy::SimdShiftAcc                 0      0.00%     99.86% # attempts to use FU when none available (Count)
system.cpu.statFuBusy::SimdDiv                      0      0.00%     99.86% # attempts to use FU when none available (Count)
system.cpu.statFuBusy::SimdSqrt                     0      0.00%     99.86% # attempts to use FU when none available (Count)
system.cpu.statFuBusy::SimdFloatAdd                 0      0.00%     99.86% # attempts to use FU when none available (Count)
system.cpu.statFuBusy::SimdFloatAlu                 0      0.00%     99.86% # attempts to use FU when none available (Count)
system.cpu.statFuBusy::SimdFloatCmp                 0      0.00%     99.86% # attempts to use FU when none available (Count)
system.cpu.statFuBusy::SimdFloatCvt                 0      0.00%     99.86% # attempts to use FU when none available (Count)
system.cpu.statFuBusy::SimdFloatDiv                 0      0.00%     99.86% # attempts to use FU when none available (Count)
system.cpu.statFuBusy::SimdFloatMisc                0      0.00%     99.86% # attempts to use FU when none available (Count)
system.cpu.statFuBusy::SimdFloatMult                0      0.00%     99.86% # attempts to use FU when none available (Count)
system.cpu.statFuBusy::SimdFloatMultAcc             0      0.00%     99.86% # attempts to use FU when none available (Count)
system.cpu.statFuBusy::SimdFloatSqrt                0      0.00%     99.86% # attempts to use FU when none available (Count)
system.cpu.statFuBusy::SimdReduceAdd                0      0.00%     99.86% # attempts to use FU when none available (Count)
system.cpu.statFuBusy::SimdReduceAlu                0      0.00%     99.86% # attempts to use FU when none available (Count)
system.cpu.statFuBusy::SimdReduceCmp                0      0.00%     99.86% # attempts to use FU when none available (Count)
system.cpu.statFuBusy::SimdFloatReduceAdd            0      0.00%     99.86% # attempts to use FU when none available (Count)
system.cpu.statFuBusy::SimdFloatReduceCmp            0      0.00%     99.86% # attempts to use FU when none available (Count)
system.cpu.statFuBusy::SimdAes                      0      0.00%     99.86% # attempts to use FU when none available (Count)
system.cpu.statFuBusy::SimdAesMix                   0      0.00%     99.86% # attempts to use FU when none available (Count)
system.cpu.statFuBusy::SimdSha1Hash                 0      0.00%     99.86% # attempts to use FU when none available (Count)
system.cpu.statFuBusy::SimdSha1Hash2                0      0.00%     99.86% # attempts to use FU when none available (Count)
system.cpu.statFuBusy::SimdSha256Hash               0      0.00%     99.86% # attempts to use FU when none available (Count)
system.cpu.statFuBusy::SimdSha256Hash2              0      0.00%     99.86% # attempts to use FU when none available (Count)
system.cpu.statFuBusy::SimdShaSigma2                0      0.00%     99.86% # attempts to use FU when none available (Count)
system.cpu.statFuBusy::SimdShaSigma3                0      0.00%     99.86% # attempts to use FU when none available (Count)
system.cpu.statFuBusy::SimdPredAlu                  0      0.00%     99.86% # attempts to use FU when none available (Count)
system.cpu.statFuBusy::MemRead                     16      0.07%     99.93% # attempts to use FU when none available (Count)
system.cpu.statFuBusy::MemWrite                     4      0.02%     99.95% # attempts to use FU when none available (Count)
system.cpu.statFuBusy::FloatMemRead                 2      0.01%     99.95% # attempts to use FU when none available (Count)
system.cpu.statFuBusy::FloatMemWrite               11      0.05%    100.00% # attempts to use FU when none available (Count)
system.cpu.statFuBusy::IprAccess                    0      0.00%    100.00% # attempts to use FU when none available (Count)
system.cpu.statFuBusy::InstPrefetch                 0      0.00%    100.00% # attempts to use FU when none available (Count)
system.cpu.statIssuedInstType_0::No_OpClass          134      0.00%      0.00% # Number of instructions issued per FU type, per thread (Count)
system.cpu.statIssuedInstType_0::IntAlu      28470862     89.86%     89.86% # Number of instructions issued per FU type, per thread (Count)
system.cpu.statIssuedInstType_0::IntMult         1609      0.01%     89.87% # Number of instructions issued per FU type, per thread (Count)
system.cpu.statIssuedInstType_0::IntDiv            16      0.00%     89.87% # Number of instructions issued per FU type, per thread (Count)
system.cpu.statIssuedInstType_0::FloatAdd           11      0.00%     89.87% # Number of instructions issued per FU type, per thread (Count)
system.cpu.statIssuedInstType_0::FloatCmp            0      0.00%     89.87% # Number of instructions issued per FU type, per thread (Count)
system.cpu.statIssuedInstType_0::FloatCvt            0      0.00%     89.87% # Number of instructions issued per FU type, per thread (Count)
system.cpu.statIssuedInstType_0::FloatMult            0      0.00%     89.87% # Number of instructions issued per FU type, per thread (Count)
system.cpu.statIssuedInstType_0::FloatMultAcc            0      0.00%     89.87% # Number of instructions issued per FU type, per thread (Count)
system.cpu.statIssuedInstType_0::FloatDiv            0      0.00%     89.87% # Number of instructions issued per FU type, per thread (Count)
system.cpu.statIssuedInstType_0::FloatMisc            0      0.00%     89.87% # Number of instructions issued per FU type, per thread (Count)
system.cpu.statIssuedInstType_0::FloatSqrt            0      0.00%     89.87% # Number of instructions issued per FU type, per thread (Count)
system.cpu.statIssuedInstType_0::SimdAdd          378      0.00%     89.87% # Number of instructions issued per FU type, per thread (Count)
system.cpu.statIssuedInstType_0::SimdAddAcc            0      0.00%     89.87% # Number of instructions issued per FU type, per thread (Count)
system.cpu.statIssuedInstType_0::SimdAlu           86      0.00%     89.87% # Number of instructions issued per FU type, per thread (Count)
system.cpu.statIssuedInstType_0::SimdCmp            0      0.00%     89.87% # Number of instructions issued per FU type, per thread (Count)
system.cpu.statIssuedInstType_0::SimdCvt          112      0.00%     89.87% # Number of instructions issued per FU type, per thread (Count)
system.cpu.statIssuedInstType_0::SimdMisc          214      0.00%     89.87% # Number of instructions issued per FU type, per thread (Count)
system.cpu.statIssuedInstType_0::SimdMult            0      0.00%     89.87% # Number of instructions issued per FU type, per thread (Count)
system.cpu.statIssuedInstType_0::SimdMultAcc            0      0.00%     89.87% # Number of instructions issued per FU type, per thread (Count)
system.cpu.statIssuedInstType_0::SimdShift          186      0.00%     89.87% # Number of instructions issued per FU type, per thread (Count)
system.cpu.statIssuedInstType_0::SimdShiftAcc            0      0.00%     89.87% # Number of instructions issued per FU type, per thread (Count)
system.cpu.statIssuedInstType_0::SimdDiv            0      0.00%     89.87% # Number of instructions issued per FU type, per thread (Count)
system.cpu.statIssuedInstType_0::SimdSqrt            0      0.00%     89.87% # Number of instructions issued per FU type, per thread (Count)
system.cpu.statIssuedInstType_0::SimdFloatAdd            0      0.00%     89.87% # Number of instructions issued per FU type, per thread (Count)
system.cpu.statIssuedInstType_0::SimdFloatAlu            0      0.00%     89.87% # Number of instructions issued per FU type, per thread (Count)
system.cpu.statIssuedInstType_0::SimdFloatCmp            0      0.00%     89.87% # Number of instructions issued per FU type, per thread (Count)
system.cpu.statIssuedInstType_0::SimdFloatCvt            0      0.00%     89.87% # Number of instructions issued per FU type, per thread (Count)
system.cpu.statIssuedInstType_0::SimdFloatDiv            0      0.00%     89.87% # Number of instructions issued per FU type, per thread (Count)
system.cpu.statIssuedInstType_0::SimdFloatMisc            0      0.00%     89.87% # Number of instructions issued per FU type, per thread (Count)
system.cpu.statIssuedInstType_0::SimdFloatMult            0      0.00%     89.87% # Number of instructions issued per FU type, per thread (Count)
system.cpu.statIssuedInstType_0::SimdFloatMultAcc            0      0.00%     89.87% # Number of instructions issued per FU type, per thread (Count)
system.cpu.statIssuedInstType_0::SimdFloatSqrt            0      0.00%     89.87% # Number of instructions issued per FU type, per thread (Count)
system.cpu.statIssuedInstType_0::SimdReduceAdd            0      0.00%     89.87% # Number of instructions issued per FU type, per thread (Count)
system.cpu.statIssuedInstType_0::SimdReduceAlu            0      0.00%     89.87% # Number of instructions issued per FU type, per thread (Count)
system.cpu.statIssuedInstType_0::SimdReduceCmp            0      0.00%     89.87% # Number of instructions issued per FU type, per thread (Count)
system.cpu.statIssuedInstType_0::SimdFloatReduceAdd            0      0.00%     89.87% # Number of instructions issued per FU type, per thread (Count)
system.cpu.statIssuedInstType_0::SimdFloatReduceCmp            0      0.00%     89.87% # Number of instructions issued per FU type, per thread (Count)
system.cpu.statIssuedInstType_0::SimdAes            0      0.00%     89.87% # Number of instructions issued per FU type, per thread (Count)
system.cpu.statIssuedInstType_0::SimdAesMix            0      0.00%     89.87% # Number of instructions issued per FU type, per thread (Count)
system.cpu.statIssuedInstType_0::SimdSha1Hash            0      0.00%     89.87% # Number of instructions issued per FU type, per thread (Count)
system.cpu.statIssuedInstType_0::SimdSha1Hash2            0      0.00%     89.87% # Number of instructions issued per FU type, per thread (Count)
system.cpu.statIssuedInstType_0::SimdSha256Hash            0      0.00%     89.87% # Number of instructions issued per FU type, per thread (Count)
system.cpu.statIssuedInstType_0::SimdSha256Hash2            0      0.00%     89.87% # Number of instructions issued per FU type, per thread (Count)
system.cpu.statIssuedInstType_0::SimdShaSigma2            0      0.00%     89.87% # Number of instructions issued per FU type, per thread (Count)
system.cpu.statIssuedInstType_0::SimdShaSigma3            0      0.00%     89.87% # Number of instructions issued per FU type, per thread (Count)
system.cpu.statIssuedInstType_0::SimdPredAlu            0      0.00%     89.87% # Number of instructions issued per FU type, per thread (Count)
system.cpu.statIssuedInstType_0::MemRead      1003848      3.17%     93.04% # Number of instructions issued per FU type, per thread (Count)
system.cpu.statIssuedInstType_0::MemWrite      2205384      6.96%    100.00% # Number of instructions issued per FU type, per thread (Count)
system.cpu.statIssuedInstType_0::FloatMemRead           67      0.00%    100.00% # Number of instructions issued per FU type, per thread (Count)
system.cpu.statIssuedInstType_0::FloatMemWrite          452      0.00%    100.00% # Number of instructions issued per FU type, per thread (Count)
system.cpu.statIssuedInstType_0::IprAccess            0      0.00%    100.00% # Number of instructions issued per FU type, per thread (Count)
system.cpu.statIssuedInstType_0::InstPrefetch            0      0.00%    100.00% # Number of instructions issued per FU type, per thread (Count)
system.cpu.statIssuedInstType_0::total       31683359                       # Number of instructions issued per FU type, per thread (Count)
system.cpu.issueRate                         0.559310                       # Inst issue rate ((Count/Cycle))
system.cpu.fuBusy                               24348                       # FU busy when requested (Count)
system.cpu.fuBusyRate                        0.000768                       # FU busy rate (busy events/executed inst) ((Count/Count))
system.cpu.intInstQueueReads                120025002                       # Number of integer instruction queue reads (Count)
system.cpu.intInstQueueWrites                31760257                       # Number of integer instruction queue writes (Count)
system.cpu.intInstQueueWakeupAccesses        31673659                       # Number of integer instruction queue wakeup accesses (Count)
system.cpu.fpInstQueueReads                      4076                       # Number of floating instruction queue reads (Count)
system.cpu.fpInstQueueWrites                     2121                       # Number of floating instruction queue writes (Count)
system.cpu.fpInstQueueWakeupAccesses             2001                       # Number of floating instruction queue wakeup accesses (Count)
system.cpu.vecInstQueueReads                        0                       # Number of vector instruction queue reads (Count)
system.cpu.vecInstQueueWrites                       0                       # Number of vector instruction queue writes (Count)
system.cpu.vecInstQueueWakeupAccesses               0                       # Number of vector instruction queue wakeup accesses (Count)
system.cpu.intAluAccesses                    31705525                       # Number of integer alu accesses (Count)
system.cpu.fpAluAccesses                         2048                       # Number of floating point alu accesses (Count)
system.cpu.vecAluAccesses                           0                       # Number of vector alu accesses (Count)
system.cpu.numInsts                          31682130                       # Number of executed instructions (Count)
system.cpu.numLoadInsts                       1003697                       # Number of load instructions executed (Count)
system.cpu.numSquashedInsts                      1223                       # Number of squashed instructions skipped in execute (Count)
system.cpu.numSwp                                   0                       # Number of swp insts executed (Count)
system.cpu.numNop                                   0                       # Number of nop insts executed (Count)
system.cpu.numRefs                            3209419                       # Number of memory reference insts executed (Count)
system.cpu.numBranches                        3209319                       # Number of branches executed (Count)
system.cpu.numStoreInsts                      2205722                       # Number of stores executed (Count)
system.cpu.numRate                           0.559288                       # Inst execution rate ((Count/Cycle))
system.cpu.timesIdled                             249                       # Number of times that the entire CPU went into an idle state and unscheduled itself (Count)
system.cpu.idleCycles                            9370                       # Total number of cycles that the CPU has spent unscheduled due to idling (Cycle)
system.cpu.committedInsts                    18004506                       # Number of Instructions Simulated (Count)
system.cpu.committedOps                      31614472                       # Number of Ops (including micro ops) Simulated (Count)
system.cpu.cpi                               3.146282                       # CPI: Cycles Per Instruction ((Cycle/Count))
system.cpu.totalCpi                          3.146282                       # CPI: Total CPI of All Threads ((Cycle/Count))
system.cpu.ipc                               0.317836                       # IPC: Instructions Per Cycle ((Count/Cycle))
system.cpu.totalIpc                          0.317836                       # IPC: Total IPC of All Threads ((Count/Cycle))
system.cpu.intRegfileReads                   45305538                       # Number of integer regfile reads (Count)
system.cpu.intRegfileWrites                  22056449                       # Number of integer regfile writes (Count)
system.cpu.fpRegfileReads                        3873                       # Number of floating regfile reads (Count)
system.cpu.fpRegfileWrites                       1513                       # Number of floating regfile writes (Count)
system.cpu.ccRegfileReads                    26044849                       # number of cc regfile reads (Count)
system.cpu.ccRegfileWrites                   16832588                       # number of cc regfile writes (Count)
system.cpu.miscRegfileReads                   9629505                       # number of misc regfile reads (Count)
system.cpu.MemDepUnit__0.insertedLoads        1004299                       # Number of loads inserted to the mem dependence unit. (Count)
system.cpu.MemDepUnit__0.insertedStores       2206241                       # Number of stores inserted to the mem dependence unit. (Count)
system.cpu.MemDepUnit__0.conflictingLoads           72                       # Number of conflicting loads. (Count)
system.cpu.MemDepUnit__0.conflictingStores           39                       # Number of conflicting stores. (Count)
system.cpu.MemDepUnit__1.insertedLoads              0                       # Number of loads inserted to the mem dependence unit. (Count)
system.cpu.MemDepUnit__1.insertedStores             0                       # Number of stores inserted to the mem dependence unit. (Count)
system.cpu.MemDepUnit__1.conflictingLoads            0                       # Number of conflicting loads. (Count)
system.cpu.MemDepUnit__1.conflictingStores            0                       # Number of conflicting stores. (Count)
system.cpu.MemDepUnit__2.insertedLoads              0                       # Number of loads inserted to the mem dependence unit. (Count)
system.cpu.MemDepUnit__2.insertedStores             0                       # Number of stores inserted to the mem dependence unit. (Count)
system.cpu.MemDepUnit__2.conflictingLoads            0                       # Number of conflicting loads. (Count)
system.cpu.MemDepUnit__2.conflictingStores            0                       # Number of conflicting stores. (Count)
system.cpu.MemDepUnit__3.insertedLoads              0                       # Number of loads inserted to the mem dependence unit. (Count)
system.cpu.MemDepUnit__3.insertedStores             0                       # Number of stores inserted to the mem dependence unit. (Count)
system.cpu.MemDepUnit__3.conflictingLoads            0                       # Number of conflicting loads. (Count)
system.cpu.MemDepUnit__3.conflictingStores            0                       # Number of conflicting stores. (Count)
system.cpu.branchPred.lookups                 3215590                       # Number of BP lookups (Count)
system.cpu.branchPred.condPredicted           3214110                       # Number of conditional branches predicted (Count)
system.cpu.branchPred.condIncorrect              1073                       # Number of conditional branches incorrect (Count)
system.cpu.branchPred.BTBLookups              3211099                       # Number of BTB lookups (Count)
system.cpu.branchPred.BTBUpdates                  644                       # Number of BTB updates (Count)
system.cpu.branchPred.BTBHits                 3210254                       # Number of BTB hits (Count)
system.cpu.branchPred.BTBHitRatio            0.999737                       # BTB Hit Ratio (Ratio)
system.cpu.branchPred.RASUsed                     297                       # Number of times the RAS was used to get a target. (Count)
system.cpu.branchPred.RASIncorrect                  1                       # Number of incorrect RAS predictions. (Count)
system.cpu.branchPred.indirectLookups             365                       # Number of indirect predictor lookups. (Count)
system.cpu.branchPred.indirectHits                  8                       # Number of indirect target hits. (Count)
system.cpu.branchPred.indirectMisses              357                       # Number of indirect misses. (Count)
system.cpu.branchPred.indirectMispredicted           84                       # Number of mispredicted indirect branches. (Count)
system.cpu.commit.commitSquashedInsts           74606                       # The number of squashed insts skipped by commit (Count)
system.cpu.commit.commitNonSpecStalls              12                       # The number of times commit has been forced to stall to communicate backwards (Count)
system.cpu.commit.branchMispredicts               884                       # The number of times a branch was mispredicted (Count)
system.cpu.commit.numCommittedDist::samples     56627971                       # Number of insts commited each cycle (Count)
system.cpu.commit.numCommittedDist::mean     0.558284                       # Number of insts commited each cycle (Count)
system.cpu.commit.numCommittedDist::stdev     1.518843                       # Number of insts commited each cycle (Count)
system.cpu.commit.numCommittedDist::underflows            0      0.00%      0.00% # Number of insts commited each cycle (Count)
system.cpu.commit.numCommittedDist::0        47381387     83.67%     83.67% # Number of insts commited each cycle (Count)
system.cpu.commit.numCommittedDist::1         2079408      3.67%     87.34% # Number of insts commited each cycle (Count)
system.cpu.commit.numCommittedDist::2          839348      1.48%     88.83% # Number of insts commited each cycle (Count)
system.cpu.commit.numCommittedDist::3         2994518      5.29%     94.11% # Number of insts commited each cycle (Count)
system.cpu.commit.numCommittedDist::4          970790      1.71%     95.83% # Number of insts commited each cycle (Count)
system.cpu.commit.numCommittedDist::5         1303296      2.30%     98.13% # Number of insts commited each cycle (Count)
system.cpu.commit.numCommittedDist::6             254      0.00%     98.13% # Number of insts commited each cycle (Count)
system.cpu.commit.numCommittedDist::7             110      0.00%     98.13% # Number of insts commited each cycle (Count)
system.cpu.commit.numCommittedDist::8         1058860      1.87%    100.00% # Number of insts commited each cycle (Count)
system.cpu.commit.numCommittedDist::overflows            0      0.00%    100.00% # Number of insts commited each cycle (Count)
system.cpu.commit.numCommittedDist::min_value            0                       # Number of insts commited each cycle (Count)
system.cpu.commit.numCommittedDist::max_value            8                       # Number of insts commited each cycle (Count)
system.cpu.commit.numCommittedDist::total     56627971                       # Number of insts commited each cycle (Count)
system.cpu.commit.instsCommitted             18004506                       # Number of instructions committed (Count)
system.cpu.commit.opsCommitted               31614472                       # Number of ops (including micro ops) committed (Count)
system.cpu.commit.memRefs                     3201398                       # Number of memory references committed (Count)
system.cpu.commit.loads                       1002188                       # Number of loads committed (Count)
system.cpu.commit.amos                              0                       # Number of atomic instructions committed (Count)
system.cpu.commit.membars                           8                       # Number of memory barriers committed (Count)
system.cpu.commit.branches                    3201504                       # Number of branches committed (Count)
system.cpu.commit.vectorInstructions                0                       # Number of committed Vector instructions. (Count)
system.cpu.commit.floating                       1961                       # Number of committed floating point instructions. (Count)
system.cpu.commit.integer                    31612924                       # Number of committed integer instructions. (Count)
system.cpu.commit.functionCalls                   131                       # Number of function calls committed. (Count)
system.cpu.commit.committedInstType_0::No_OpClass           24      0.00%      0.00% # Class of committed instruction (Count)
system.cpu.commit.committedInstType_0::IntAlu     28411065     89.87%     89.87% # Class of committed instruction (Count)
system.cpu.commit.committedInstType_0::IntMult         1003      0.00%     89.87% # Class of committed instruction (Count)
system.cpu.commit.committedInstType_0::IntDiv           14      0.00%     89.87% # Class of committed instruction (Count)
system.cpu.commit.committedInstType_0::FloatAdd           10      0.00%     89.87% # Class of committed instruction (Count)
system.cpu.commit.committedInstType_0::FloatCmp            0      0.00%     89.87% # Class of committed instruction (Count)
system.cpu.commit.committedInstType_0::FloatCvt            0      0.00%     89.87% # Class of committed instruction (Count)
system.cpu.commit.committedInstType_0::FloatMult            0      0.00%     89.87% # Class of committed instruction (Count)
system.cpu.commit.committedInstType_0::FloatMultAcc            0      0.00%     89.87% # Class of committed instruction (Count)
system.cpu.commit.committedInstType_0::FloatDiv            0      0.00%     89.87% # Class of committed instruction (Count)
system.cpu.commit.committedInstType_0::FloatMisc            0      0.00%     89.87% # Class of committed instruction (Count)
system.cpu.commit.committedInstType_0::FloatSqrt            0      0.00%     89.87% # Class of committed instruction (Count)
system.cpu.commit.committedInstType_0::SimdAdd          374      0.00%     89.87% # Class of committed instruction (Count)
system.cpu.commit.committedInstType_0::SimdAddAcc            0      0.00%     89.87% # Class of committed instruction (Count)
system.cpu.commit.committedInstType_0::SimdAlu           76      0.00%     89.87% # Class of committed instruction (Count)
system.cpu.commit.committedInstType_0::SimdCmp            0      0.00%     89.87% # Class of committed instruction (Count)
system.cpu.commit.committedInstType_0::SimdCvt          110      0.00%     89.87% # Class of committed instruction (Count)
system.cpu.commit.committedInstType_0::SimdMisc          212      0.00%     89.87% # Class of committed instruction (Count)
system.cpu.commit.committedInstType_0::SimdMult            0      0.00%     89.87% # Class of committed instruction (Count)
system.cpu.commit.committedInstType_0::SimdMultAcc            0      0.00%     89.87% # Class of committed instruction (Count)
system.cpu.commit.committedInstType_0::SimdShift          186      0.00%     89.87% # Class of committed instruction (Count)
system.cpu.commit.committedInstType_0::SimdShiftAcc            0      0.00%     89.87% # Class of committed instruction (Count)
system.cpu.commit.committedInstType_0::SimdDiv            0      0.00%     89.87% # Class of committed instruction (Count)
system.cpu.commit.committedInstType_0::SimdSqrt            0      0.00%     89.87% # Class of committed instruction (Count)
system.cpu.commit.committedInstType_0::SimdFloatAdd            0      0.00%     89.87% # Class of committed instruction (Count)
system.cpu.commit.committedInstType_0::SimdFloatAlu            0      0.00%     89.87% # Class of committed instruction (Count)
system.cpu.commit.committedInstType_0::SimdFloatCmp            0      0.00%     89.87% # Class of committed instruction (Count)
system.cpu.commit.committedInstType_0::SimdFloatCvt            0      0.00%     89.87% # Class of committed instruction (Count)
system.cpu.commit.committedInstType_0::SimdFloatDiv            0      0.00%     89.87% # Class of committed instruction (Count)
system.cpu.commit.committedInstType_0::SimdFloatMisc            0      0.00%     89.87% # Class of committed instruction (Count)
system.cpu.commit.committedInstType_0::SimdFloatMult            0      0.00%     89.87% # Class of committed instruction (Count)
system.cpu.commit.committedInstType_0::SimdFloatMultAcc            0      0.00%     89.87% # Class of committed instruction (Count)
system.cpu.commit.committedInstType_0::SimdFloatSqrt            0      0.00%     89.87% # Class of committed instruction (Count)
system.cpu.commit.committedInstType_0::SimdReduceAdd            0      0.00%     89.87% # Class of committed instruction (Count)
system.cpu.commit.committedInstType_0::SimdReduceAlu            0      0.00%     89.87% # Class of committed instruction (Count)
system.cpu.commit.committedInstType_0::SimdReduceCmp            0      0.00%     89.87% # Class of committed instruction (Count)
system.cpu.commit.committedInstType_0::SimdFloatReduceAdd            0      0.00%     89.87% # Class of committed instruction (Count)
system.cpu.commit.committedInstType_0::SimdFloatReduceCmp            0      0.00%     89.87% # Class of committed instruction (Count)
system.cpu.commit.committedInstType_0::SimdAes            0      0.00%     89.87% # Class of committed instruction (Count)
system.cpu.commit.committedInstType_0::SimdAesMix            0      0.00%     89.87% # Class of committed instruction (Count)
system.cpu.commit.committedInstType_0::SimdSha1Hash            0      0.00%     89.87% # Class of committed instruction (Count)
system.cpu.commit.committedInstType_0::SimdSha1Hash2            0      0.00%     89.87% # Class of committed instruction (Count)
system.cpu.commit.committedInstType_0::SimdSha256Hash            0      0.00%     89.87% # Class of committed instruction (Count)
system.cpu.commit.committedInstType_0::SimdSha256Hash2            0      0.00%     89.87% # Class of committed instruction (Count)
system.cpu.commit.committedInstType_0::SimdShaSigma2            0      0.00%     89.87% # Class of committed instruction (Count)
system.cpu.commit.committedInstType_0::SimdShaSigma3            0      0.00%     89.87% # Class of committed instruction (Count)
system.cpu.commit.committedInstType_0::SimdPredAlu            0      0.00%     89.87% # Class of committed instruction (Count)
system.cpu.commit.committedInstType_0::MemRead      1002134      3.17%     93.04% # Class of committed instruction (Count)
system.cpu.commit.committedInstType_0::MemWrite      2198783      6.95%    100.00% # Class of committed instruction (Count)
system.cpu.commit.committedInstType_0::FloatMemRead           54      0.00%    100.00% # Class of committed instruction (Count)
system.cpu.commit.committedInstType_0::FloatMemWrite          427      0.00%    100.00% # Class of committed instruction (Count)
system.cpu.commit.committedInstType_0::IprAccess            0      0.00%    100.00% # Class of committed instruction (Count)
system.cpu.commit.committedInstType_0::InstPrefetch            0      0.00%    100.00% # Class of committed instruction (Count)
system.cpu.commit.committedInstType_0::total     31614472                       # Class of committed instruction (Count)
system.cpu.commit.commitEligibleSamples       1058860                       # number cycles where commit BW limit reached (Cycle)
system.cpu.dcache.demandHits::cpu.data        2296740                       # number of demand (read+write) hits (Count)
system.cpu.dcache.demandHits::total           2296740                       # number of demand (read+write) hits (Count)
system.cpu.dcache.overallHits::cpu.data       2296740                       # number of overall hits (Count)
system.cpu.dcache.overallHits::total          2296740                       # number of overall hits (Count)
system.cpu.dcache.demandMisses::cpu.data       905955                       # number of demand (read+write) misses (Count)
system.cpu.dcache.demandMisses::total          905955                       # number of demand (read+write) misses (Count)
system.cpu.dcache.overallMisses::cpu.data       905955                       # number of overall misses (Count)
system.cpu.dcache.overallMisses::total         905955                       # number of overall misses (Count)
system.cpu.dcache.demandMissLatency::cpu.data  55280104999                       # number of demand (read+write) miss ticks (Tick)
system.cpu.dcache.demandMissLatency::total  55280104999                       # number of demand (read+write) miss ticks (Tick)
system.cpu.dcache.overallMissLatency::cpu.data  55280104999                       # number of overall miss ticks (Tick)
system.cpu.dcache.overallMissLatency::total  55280104999                       # number of overall miss ticks (Tick)
system.cpu.dcache.demandAccesses::cpu.data      3202695                       # number of demand (read+write) accesses (Count)
system.cpu.dcache.demandAccesses::total       3202695                       # number of demand (read+write) accesses (Count)
system.cpu.dcache.overallAccesses::cpu.data      3202695                       # number of overall (read+write) accesses (Count)
system.cpu.dcache.overallAccesses::total      3202695                       # number of overall (read+write) accesses (Count)
system.cpu.dcache.demandMissRate::cpu.data     0.282873                       # miss rate for demand accesses (Ratio)
system.cpu.dcache.demandMissRate::total      0.282873                       # miss rate for demand accesses (Ratio)
system.cpu.dcache.overallMissRate::cpu.data     0.282873                       # miss rate for overall accesses (Ratio)
system.cpu.dcache.overallMissRate::total     0.282873                       # miss rate for overall accesses (Ratio)
system.cpu.dcache.demandAvgMissLatency::cpu.data 61018.599157                       # average overall miss latency in ticks ((Tick/Count))
system.cpu.dcache.demandAvgMissLatency::total 61018.599157                       # average overall miss latency in ticks ((Tick/Count))
system.cpu.dcache.overallAvgMissLatency::cpu.data 61018.599157                       # average overall miss latency ((Tick/Count))
system.cpu.dcache.overallAvgMissLatency::total 61018.599157                       # average overall miss latency ((Tick/Count))
system.cpu.dcache.blockedCycles::no_mshrs          186                       # number of cycles access was blocked (Cycle)
system.cpu.dcache.blockedCycles::no_targets            0                       # number of cycles access was blocked (Cycle)
system.cpu.dcache.blockedCauses::no_mshrs            8                       # number of times access was blocked (Count)
system.cpu.dcache.blockedCauses::no_targets            0                       # number of times access was blocked (Count)
system.cpu.dcache.avgBlocked::no_mshrs      23.250000                       # average number of cycles each access was blocked ((Cycle/Count))
system.cpu.dcache.avgBlocked::no_targets          nan                       # average number of cycles each access was blocked ((Cycle/Count))
system.cpu.dcache.writebacks::writebacks       762738                       # number of writebacks (Count)
system.cpu.dcache.writebacks::total            762738                       # number of writebacks (Count)
system.cpu.dcache.demandMshrHits::cpu.data       127347                       # number of demand (read+write) MSHR hits (Count)
system.cpu.dcache.demandMshrHits::total        127347                       # number of demand (read+write) MSHR hits (Count)
system.cpu.dcache.overallMshrHits::cpu.data       127347                       # number of overall MSHR hits (Count)
system.cpu.dcache.overallMshrHits::total       127347                       # number of overall MSHR hits (Count)
system.cpu.dcache.demandMshrMisses::cpu.data       778608                       # number of demand (read+write) MSHR misses (Count)
system.cpu.dcache.demandMshrMisses::total       778608                       # number of demand (read+write) MSHR misses (Count)
system.cpu.dcache.overallMshrMisses::cpu.data       778608                       # number of overall MSHR misses (Count)
system.cpu.dcache.overallMshrMisses::total       778608                       # number of overall MSHR misses (Count)
system.cpu.dcache.demandMshrMissLatency::cpu.data  48721971000                       # number of demand (read+write) MSHR miss ticks (Tick)
system.cpu.dcache.demandMshrMissLatency::total  48721971000                       # number of demand (read+write) MSHR miss ticks (Tick)
system.cpu.dcache.overallMshrMissLatency::cpu.data  48721971000                       # number of overall MSHR miss ticks (Tick)
system.cpu.dcache.overallMshrMissLatency::total  48721971000                       # number of overall MSHR miss ticks (Tick)
system.cpu.dcache.demandMshrMissRate::cpu.data     0.243110                       # mshr miss ratio for demand accesses (Ratio)
system.cpu.dcache.demandMshrMissRate::total     0.243110                       # mshr miss ratio for demand accesses (Ratio)
system.cpu.dcache.overallMshrMissRate::cpu.data     0.243110                       # mshr miss ratio for overall accesses (Ratio)
system.cpu.dcache.overallMshrMissRate::total     0.243110                       # mshr miss ratio for overall accesses (Ratio)
system.cpu.dcache.demandAvgMshrMissLatency::cpu.data 62575.739011                       # average overall mshr miss latency ((Tick/Count))
system.cpu.dcache.demandAvgMshrMissLatency::total 62575.739011                       # average overall mshr miss latency ((Tick/Count))
system.cpu.dcache.overallAvgMshrMissLatency::cpu.data 62575.739011                       # average overall mshr miss latency ((Tick/Count))
system.cpu.dcache.overallAvgMshrMissLatency::total 62575.739011                       # average overall mshr miss latency ((Tick/Count))
system.cpu.dcache.replacements                 777584                       # number of replacements (Count)
system.cpu.dcache.LockedRMWReadReq.hits::cpu.data            4                       # number of LockedRMWReadReq hits (Count)
system.cpu.dcache.LockedRMWReadReq.hits::total            4                       # number of LockedRMWReadReq hits (Count)
system.cpu.dcache.LockedRMWReadReq.accesses::cpu.data            4                       # number of LockedRMWReadReq accesses(hits+misses) (Count)
system.cpu.dcache.LockedRMWReadReq.accesses::total            4                       # number of LockedRMWReadReq accesses(hits+misses) (Count)
system.cpu.dcache.LockedRMWReadReq.mshrMissLatency::cpu.data        34000                       # number of LockedRMWReadReq MSHR miss ticks (Tick)
system.cpu.dcache.LockedRMWReadReq.mshrMissLatency::total        34000                       # number of LockedRMWReadReq MSHR miss ticks (Tick)
system.cpu.dcache.LockedRMWReadReq.avgMshrMissLatency::cpu.data          inf                       # average LockedRMWReadReq mshr miss latency ((Tick/Count))
system.cpu.dcache.LockedRMWReadReq.avgMshrMissLatency::total          inf                       # average LockedRMWReadReq mshr miss latency ((Tick/Count))
system.cpu.dcache.LockedRMWWriteReq.hits::cpu.data            4                       # number of LockedRMWWriteReq hits (Count)
system.cpu.dcache.LockedRMWWriteReq.hits::total            4                       # number of LockedRMWWriteReq hits (Count)
system.cpu.dcache.LockedRMWWriteReq.accesses::cpu.data            4                       # number of LockedRMWWriteReq accesses(hits+misses) (Count)
system.cpu.dcache.LockedRMWWriteReq.accesses::total            4                       # number of LockedRMWWriteReq accesses(hits+misses) (Count)
system.cpu.dcache.ReadReq.hits::cpu.data       860243                       # number of ReadReq hits (Count)
system.cpu.dcache.ReadReq.hits::total          860243                       # number of ReadReq hits (Count)
system.cpu.dcache.ReadReq.misses::cpu.data       143245                       # number of ReadReq misses (Count)
system.cpu.dcache.ReadReq.misses::total        143245                       # number of ReadReq misses (Count)
system.cpu.dcache.ReadReq.missLatency::cpu.data   5885304000                       # number of ReadReq miss ticks (Tick)
system.cpu.dcache.ReadReq.missLatency::total   5885304000                       # number of ReadReq miss ticks (Tick)
system.cpu.dcache.ReadReq.accesses::cpu.data      1003488                       # number of ReadReq accesses(hits+misses) (Count)
system.cpu.dcache.ReadReq.accesses::total      1003488                       # number of ReadReq accesses(hits+misses) (Count)
system.cpu.dcache.ReadReq.missRate::cpu.data     0.142747                       # miss rate for ReadReq accesses (Ratio)
system.cpu.dcache.ReadReq.missRate::total     0.142747                       # miss rate for ReadReq accesses (Ratio)
system.cpu.dcache.ReadReq.avgMissLatency::cpu.data 41085.580649                       # average ReadReq miss latency ((Tick/Count))
system.cpu.dcache.ReadReq.avgMissLatency::total 41085.580649                       # average ReadReq miss latency ((Tick/Count))
system.cpu.dcache.ReadReq.mshrHits::cpu.data       127344                       # number of ReadReq MSHR hits (Count)
system.cpu.dcache.ReadReq.mshrHits::total       127344                       # number of ReadReq MSHR hits (Count)
system.cpu.dcache.ReadReq.mshrMisses::cpu.data        15901                       # number of ReadReq MSHR misses (Count)
system.cpu.dcache.ReadReq.mshrMisses::total        15901                       # number of ReadReq MSHR misses (Count)
system.cpu.dcache.ReadReq.mshrMissLatency::cpu.data    852658000                       # number of ReadReq MSHR miss ticks (Tick)
system.cpu.dcache.ReadReq.mshrMissLatency::total    852658000                       # number of ReadReq MSHR miss ticks (Tick)
system.cpu.dcache.ReadReq.mshrMissRate::cpu.data     0.015846                       # mshr miss rate for ReadReq accesses (Ratio)
system.cpu.dcache.ReadReq.mshrMissRate::total     0.015846                       # mshr miss rate for ReadReq accesses (Ratio)
system.cpu.dcache.ReadReq.avgMshrMissLatency::cpu.data 53622.916798                       # average ReadReq mshr miss latency ((Tick/Count))
system.cpu.dcache.ReadReq.avgMshrMissLatency::total 53622.916798                       # average ReadReq mshr miss latency ((Tick/Count))
system.cpu.dcache.WriteReq.hits::cpu.data      1436497                       # number of WriteReq hits (Count)
system.cpu.dcache.WriteReq.hits::total        1436497                       # number of WriteReq hits (Count)
system.cpu.dcache.WriteReq.misses::cpu.data       762710                       # number of WriteReq misses (Count)
system.cpu.dcache.WriteReq.misses::total       762710                       # number of WriteReq misses (Count)
system.cpu.dcache.WriteReq.missLatency::cpu.data  49394800999                       # number of WriteReq miss ticks (Tick)
system.cpu.dcache.WriteReq.missLatency::total  49394800999                       # number of WriteReq miss ticks (Tick)
system.cpu.dcache.WriteReq.accesses::cpu.data      2199207                       # number of WriteReq accesses(hits+misses) (Count)
system.cpu.dcache.WriteReq.accesses::total      2199207                       # number of WriteReq accesses(hits+misses) (Count)
system.cpu.dcache.WriteReq.missRate::cpu.data     0.346811                       # miss rate for WriteReq accesses (Ratio)
system.cpu.dcache.WriteReq.missRate::total     0.346811                       # miss rate for WriteReq accesses (Ratio)
system.cpu.dcache.WriteReq.avgMissLatency::cpu.data 64762.230729                       # average WriteReq miss latency ((Tick/Count))
system.cpu.dcache.WriteReq.avgMissLatency::total 64762.230729                       # average WriteReq miss latency ((Tick/Count))
system.cpu.dcache.WriteReq.mshrHits::cpu.data            3                       # number of WriteReq MSHR hits (Count)
system.cpu.dcache.WriteReq.mshrHits::total            3                       # number of WriteReq MSHR hits (Count)
system.cpu.dcache.WriteReq.mshrMisses::cpu.data       762707                       # number of WriteReq MSHR misses (Count)
system.cpu.dcache.WriteReq.mshrMisses::total       762707                       # number of WriteReq MSHR misses (Count)
system.cpu.dcache.WriteReq.mshrMissLatency::cpu.data  47869313000                       # number of WriteReq MSHR miss ticks (Tick)
system.cpu.dcache.WriteReq.mshrMissLatency::total  47869313000                       # number of WriteReq MSHR miss ticks (Tick)
system.cpu.dcache.WriteReq.mshrMissRate::cpu.data     0.346810                       # mshr miss rate for WriteReq accesses (Ratio)
system.cpu.dcache.WriteReq.mshrMissRate::total     0.346810                       # mshr miss rate for WriteReq accesses (Ratio)
system.cpu.dcache.WriteReq.avgMshrMissLatency::cpu.data 62762.388440                       # average WriteReq mshr miss latency ((Tick/Count))
system.cpu.dcache.WriteReq.avgMshrMissLatency::total 62762.388440                       # average WriteReq mshr miss latency ((Tick/Count))
system.cpu.dcache.power_state.pwrStateResidencyTicks::UNDEFINED  56647245000                       # Cumulative time (in ticks) in various power states (Tick)
system.cpu.dcache.tags.tagsInUse          1022.787874                       # Average ticks per tags in use ((Tick/Count))
system.cpu.dcache.tags.totalRefs              3075356                       # Total number of references to valid blocks. (Count)
system.cpu.dcache.tags.sampledRefs             778608                       # Sample count of references to valid blocks. (Count)
system.cpu.dcache.tags.avgRefs               3.949813                       # Average number of references to valid blocks. ((Count/Count))
system.cpu.dcache.tags.warmupTick              150000                       # The tick when the warmup percentage was hit. (Tick)
system.cpu.dcache.tags.occupancies::cpu.data  1022.787874                       # Average occupied blocks per tick, per requestor ((Count/Tick))
system.cpu.dcache.tags.avgOccs::cpu.data     0.998816                       # Average percentage of cache occupancy ((Ratio/Tick))
system.cpu.dcache.tags.avgOccs::total        0.998816                       # Average percentage of cache occupancy ((Ratio/Tick))
system.cpu.dcache.tags.occupanciesTaskId::1024         1024                       # Occupied blocks per task id (Count)
system.cpu.dcache.tags.ageTaskId_1024::0           55                       # Occupied blocks per task id, per block age (Count)
system.cpu.dcache.tags.ageTaskId_1024::1          324                       # Occupied blocks per task id, per block age (Count)
system.cpu.dcache.tags.ageTaskId_1024::2          645                       # Occupied blocks per task id, per block age (Count)
system.cpu.dcache.tags.ratioOccsTaskId::1024            1                       # Ratio of occupied blocks and all blocks, per task id (Ratio)
system.cpu.dcache.tags.tagAccesses            7184014                       # Number of tag accesses (Count)
system.cpu.dcache.tags.dataAccesses           7184014                       # Number of data accesses (Count)
system.cpu.dcache.tags.power_state.pwrStateResidencyTicks::UNDEFINED  56647245000                       # Cumulative time (in ticks) in various power states (Tick)
system.cpu.decode.idleCycles                  1608631                       # Number of cycles decode is idle (Cycle)
system.cpu.decode.blockedCycles              51063077                       # Number of cycles decode is blocked (Cycle)
system.cpu.decode.runCycles                    462082                       # Number of cycles decode is running (Cycle)
system.cpu.decode.unblockCycles               3502942                       # Number of cycles decode is unblocking (Cycle)
system.cpu.decode.squashCycles                   1144                       # Number of cycles decode is squashing (Cycle)
system.cpu.decode.branchResolved              3207700                       # Number of times decode resolved a branch (Count)
system.cpu.decode.branchMispred                   236                       # Number of times decode detected a branch misprediction (Count)
system.cpu.decode.decodedInsts               31701158                       # Number of instructions handled by decode (Count)
system.cpu.decode.squashedInsts                  1072                       # Number of squashed instructions handled by decode (Count)
system.cpu.dtb_walker_cache.blockedCycles::no_mshrs            0                       # number of cycles access was blocked (Cycle)
system.cpu.dtb_walker_cache.blockedCycles::no_targets            0                       # number of cycles access was blocked (Cycle)
system.cpu.dtb_walker_cache.blockedCauses::no_mshrs            0                       # number of times access was blocked (Count)
system.cpu.dtb_walker_cache.blockedCauses::no_targets            0                       # number of times access was blocked (Count)
system.cpu.dtb_walker_cache.avgBlocked::no_mshrs          nan                       # average number of cycles each access was blocked ((Cycle/Count))
system.cpu.dtb_walker_cache.avgBlocked::no_targets          nan                       # average number of cycles each access was blocked ((Cycle/Count))
system.cpu.dtb_walker_cache.replacements            0                       # number of replacements (Count)
system.cpu.dtb_walker_cache.power_state.pwrStateResidencyTicks::UNDEFINED  56647245000                       # Cumulative time (in ticks) in various power states (Tick)
system.cpu.dtb_walker_cache.tags.tagsInUse            0                       # Average ticks per tags in use ((Tick/Count))
system.cpu.dtb_walker_cache.tags.totalRefs            0                       # Total number of references to valid blocks. (Count)
system.cpu.dtb_walker_cache.tags.sampledRefs            0                       # Sample count of references to valid blocks. (Count)
system.cpu.dtb_walker_cache.tags.avgRefs          nan                       # Average number of references to valid blocks. ((Count/Count))
system.cpu.dtb_walker_cache.tags.warmupTick            0                       # The tick when the warmup percentage was hit. (Tick)
system.cpu.dtb_walker_cache.tags.tagAccesses            0                       # Number of tag accesses (Count)
system.cpu.dtb_walker_cache.tags.dataAccesses            0                       # Number of data accesses (Count)
system.cpu.dtb_walker_cache.tags.power_state.pwrStateResidencyTicks::UNDEFINED  56647245000                       # Cumulative time (in ticks) in various power states (Tick)
system.cpu.fetch.icacheStallCycles              11412                       # Number of cycles fetch is stalled on an Icache miss (Cycle)
system.cpu.fetch.insts                       18071388                       # Number of instructions fetch has processed (Count)
system.cpu.fetch.branches                     3215590                       # Number of branches that fetch encountered (Count)
system.cpu.fetch.predictedBranches            3210559                       # Number of branches that fetch has predicted taken (Count)
system.cpu.fetch.cycles                      56624739                       # Number of cycles fetch has run and was not squashing or blocked (Cycle)
system.cpu.fetch.squashCycles                    2746                       # Number of cycles fetch has spent squashing (Cycle)
system.cpu.fetch.miscStallCycles                   52                       # Number of cycles fetch has spent waiting on interrupts, or bad addresses, or out of MSHRs (Cycle)
system.cpu.fetch.pendingTrapStallCycles           285                       # Number of stall cycles due to pending traps (Cycle)
system.cpu.fetch.icacheWaitRetryStallCycles           15                       # Number of stall cycles due to full MSHR (Cycle)
system.cpu.fetch.cacheLines                      2349                       # Number of cache lines fetched (Count)
system.cpu.fetch.icacheSquashes                   357                       # Number of outstanding Icache misses that were squashed (Count)
system.cpu.fetch.nisnDist::samples           56637876                       # Number of instructions fetched each cycle (Total) (Count)
system.cpu.fetch.nisnDist::mean              0.560206                       # Number of instructions fetched each cycle (Total) (Count)
system.cpu.fetch.nisnDist::stdev             1.933840                       # Number of instructions fetched each cycle (Total) (Count)
system.cpu.fetch.nisnDist::underflows               0      0.00%      0.00% # Number of instructions fetched each cycle (Total) (Count)
system.cpu.fetch.nisnDist::0                 51732501     91.34%     91.34% # Number of instructions fetched each cycle (Total) (Count)
system.cpu.fetch.nisnDist::1                    42123      0.07%     91.41% # Number of instructions fetched each cycle (Total) (Count)
system.cpu.fetch.nisnDist::2                   646585      1.14%     92.56% # Number of instructions fetched each cycle (Total) (Count)
system.cpu.fetch.nisnDist::3                      519      0.00%     92.56% # Number of instructions fetched each cycle (Total) (Count)
system.cpu.fetch.nisnDist::4                   484763      0.86%     93.41% # Number of instructions fetched each cycle (Total) (Count)
system.cpu.fetch.nisnDist::5                      384      0.00%     93.41% # Number of instructions fetched each cycle (Total) (Count)
system.cpu.fetch.nisnDist::6                   678252      1.20%     94.61% # Number of instructions fetched each cycle (Total) (Count)
system.cpu.fetch.nisnDist::7                    40434      0.07%     94.68% # Number of instructions fetched each cycle (Total) (Count)
system.cpu.fetch.nisnDist::8                  3012315      5.32%    100.00% # Number of instructions fetched each cycle (Total) (Count)
system.cpu.fetch.nisnDist::overflows                0      0.00%    100.00% # Number of instructions fetched each cycle (Total) (Count)
system.cpu.fetch.nisnDist::min_value                0                       # Number of instructions fetched each cycle (Total) (Count)
system.cpu.fetch.nisnDist::max_value                8                       # Number of instructions fetched each cycle (Total) (Count)
system.cpu.fetch.nisnDist::total             56637876                       # Number of instructions fetched each cycle (Total) (Count)
system.cpu.fetch.branchRate                  0.056765                       # Number of branch fetches per cycle (Ratio)
system.cpu.fetch.rate                        0.319016                       # Number of inst fetches per cycle ((Count/Cycle))
system.cpu.icache.demandHits::cpu.inst           1765                       # number of demand (read+write) hits (Count)
system.cpu.icache.demandHits::total              1765                       # number of demand (read+write) hits (Count)
system.cpu.icache.overallHits::cpu.inst          1765                       # number of overall hits (Count)
system.cpu.icache.overallHits::total             1765                       # number of overall hits (Count)
system.cpu.icache.demandMisses::cpu.inst          584                       # number of demand (read+write) misses (Count)
system.cpu.icache.demandMisses::total             584                       # number of demand (read+write) misses (Count)
system.cpu.icache.overallMisses::cpu.inst          584                       # number of overall misses (Count)
system.cpu.icache.overallMisses::total            584                       # number of overall misses (Count)
system.cpu.icache.demandMissLatency::cpu.inst     34126000                       # number of demand (read+write) miss ticks (Tick)
system.cpu.icache.demandMissLatency::total     34126000                       # number of demand (read+write) miss ticks (Tick)
system.cpu.icache.overallMissLatency::cpu.inst     34126000                       # number of overall miss ticks (Tick)
system.cpu.icache.overallMissLatency::total     34126000                       # number of overall miss ticks (Tick)
system.cpu.icache.demandAccesses::cpu.inst         2349                       # number of demand (read+write) accesses (Count)
system.cpu.icache.demandAccesses::total          2349                       # number of demand (read+write) accesses (Count)
system.cpu.icache.overallAccesses::cpu.inst         2349                       # number of overall (read+write) accesses (Count)
system.cpu.icache.overallAccesses::total         2349                       # number of overall (read+write) accesses (Count)
system.cpu.icache.demandMissRate::cpu.inst     0.248616                       # miss rate for demand accesses (Ratio)
system.cpu.icache.demandMissRate::total      0.248616                       # miss rate for demand accesses (Ratio)
system.cpu.icache.overallMissRate::cpu.inst     0.248616                       # miss rate for overall accesses (Ratio)
system.cpu.icache.overallMissRate::total     0.248616                       # miss rate for overall accesses (Ratio)
system.cpu.icache.demandAvgMissLatency::cpu.inst 58434.931507                       # average overall miss latency in ticks ((Tick/Count))
system.cpu.icache.demandAvgMissLatency::total 58434.931507                       # average overall miss latency in ticks ((Tick/Count))
system.cpu.icache.overallAvgMissLatency::cpu.inst 58434.931507                       # average overall miss latency ((Tick/Count))
system.cpu.icache.overallAvgMissLatency::total 58434.931507                       # average overall miss latency ((Tick/Count))
system.cpu.icache.blockedCycles::no_mshrs           48                       # number of cycles access was blocked (Cycle)
system.cpu.icache.blockedCycles::no_targets            0                       # number of cycles access was blocked (Cycle)
system.cpu.icache.blockedCauses::no_mshrs            3                       # number of times access was blocked (Count)
system.cpu.icache.blockedCauses::no_targets            0                       # number of times access was blocked (Count)
system.cpu.icache.avgBlocked::no_mshrs             16                       # average number of cycles each access was blocked ((Cycle/Count))
system.cpu.icache.avgBlocked::no_targets          nan                       # average number of cycles each access was blocked ((Cycle/Count))
system.cpu.icache.writebacks::writebacks          205                       # number of writebacks (Count)
system.cpu.icache.writebacks::total               205                       # number of writebacks (Count)
system.cpu.icache.demandMshrHits::cpu.inst          131                       # number of demand (read+write) MSHR hits (Count)
system.cpu.icache.demandMshrHits::total           131                       # number of demand (read+write) MSHR hits (Count)
system.cpu.icache.overallMshrHits::cpu.inst          131                       # number of overall MSHR hits (Count)
system.cpu.icache.overallMshrHits::total          131                       # number of overall MSHR hits (Count)
system.cpu.icache.demandMshrMisses::cpu.inst          453                       # number of demand (read+write) MSHR misses (Count)
system.cpu.icache.demandMshrMisses::total          453                       # number of demand (read+write) MSHR misses (Count)
system.cpu.icache.overallMshrMisses::cpu.inst          453                       # number of overall MSHR misses (Count)
system.cpu.icache.overallMshrMisses::total          453                       # number of overall MSHR misses (Count)
system.cpu.icache.demandMshrMissLatency::cpu.inst     27988000                       # number of demand (read+write) MSHR miss ticks (Tick)
system.cpu.icache.demandMshrMissLatency::total     27988000                       # number of demand (read+write) MSHR miss ticks (Tick)
system.cpu.icache.overallMshrMissLatency::cpu.inst     27988000                       # number of overall MSHR miss ticks (Tick)
system.cpu.icache.overallMshrMissLatency::total     27988000                       # number of overall MSHR miss ticks (Tick)
system.cpu.icache.demandMshrMissRate::cpu.inst     0.192848                       # mshr miss ratio for demand accesses (Ratio)
system.cpu.icache.demandMshrMissRate::total     0.192848                       # mshr miss ratio for demand accesses (Ratio)
system.cpu.icache.overallMshrMissRate::cpu.inst     0.192848                       # mshr miss ratio for overall accesses (Ratio)
system.cpu.icache.overallMshrMissRate::total     0.192848                       # mshr miss ratio for overall accesses (Ratio)
system.cpu.icache.demandAvgMshrMissLatency::cpu.inst 61783.664459                       # average overall mshr miss latency ((Tick/Count))
system.cpu.icache.demandAvgMshrMissLatency::total 61783.664459                       # average overall mshr miss latency ((Tick/Count))
system.cpu.icache.overallAvgMshrMissLatency::cpu.inst 61783.664459                       # average overall mshr miss latency ((Tick/Count))
system.cpu.icache.overallAvgMshrMissLatency::total 61783.664459                       # average overall mshr miss latency ((Tick/Count))
system.cpu.icache.replacements                    205                       # number of replacements (Count)
system.cpu.icache.ReadReq.hits::cpu.inst         1765                       # number of ReadReq hits (Count)
system.cpu.icache.ReadReq.hits::total            1765                       # number of ReadReq hits (Count)
system.cpu.icache.ReadReq.misses::cpu.inst          584                       # number of ReadReq misses (Count)
system.cpu.icache.ReadReq.misses::total           584                       # number of ReadReq misses (Count)
system.cpu.icache.ReadReq.missLatency::cpu.inst     34126000                       # number of ReadReq miss ticks (Tick)
system.cpu.icache.ReadReq.missLatency::total     34126000                       # number of ReadReq miss ticks (Tick)
system.cpu.icache.ReadReq.accesses::cpu.inst         2349                       # number of ReadReq accesses(hits+misses) (Count)
system.cpu.icache.ReadReq.accesses::total         2349                       # number of ReadReq accesses(hits+misses) (Count)
system.cpu.icache.ReadReq.missRate::cpu.inst     0.248616                       # miss rate for ReadReq accesses (Ratio)
system.cpu.icache.ReadReq.missRate::total     0.248616                       # miss rate for ReadReq accesses (Ratio)
system.cpu.icache.ReadReq.avgMissLatency::cpu.inst 58434.931507                       # average ReadReq miss latency ((Tick/Count))
system.cpu.icache.ReadReq.avgMissLatency::total 58434.931507                       # average ReadReq miss latency ((Tick/Count))
system.cpu.icache.ReadReq.mshrHits::cpu.inst          131                       # number of ReadReq MSHR hits (Count)
system.cpu.icache.ReadReq.mshrHits::total          131                       # number of ReadReq MSHR hits (Count)
system.cpu.icache.ReadReq.mshrMisses::cpu.inst          453                       # number of ReadReq MSHR misses (Count)
system.cpu.icache.ReadReq.mshrMisses::total          453                       # number of ReadReq MSHR misses (Count)
system.cpu.icache.ReadReq.mshrMissLatency::cpu.inst     27988000                       # number of ReadReq MSHR miss ticks (Tick)
system.cpu.icache.ReadReq.mshrMissLatency::total     27988000                       # number of ReadReq MSHR miss ticks (Tick)
system.cpu.icache.ReadReq.mshrMissRate::cpu.inst     0.192848                       # mshr miss rate for ReadReq accesses (Ratio)
system.cpu.icache.ReadReq.mshrMissRate::total     0.192848                       # mshr miss rate for ReadReq accesses (Ratio)
system.cpu.icache.ReadReq.avgMshrMissLatency::cpu.inst 61783.664459                       # average ReadReq mshr miss latency ((Tick/Count))
system.cpu.icache.ReadReq.avgMshrMissLatency::total 61783.664459                       # average ReadReq mshr miss latency ((Tick/Count))
system.cpu.icache.power_state.pwrStateResidencyTicks::UNDEFINED  56647245000                       # Cumulative time (in ticks) in various power states (Tick)
system.cpu.icache.tags.tagsInUse           237.957330                       # Average ticks per tags in use ((Tick/Count))
system.cpu.icache.tags.totalRefs                 2217                       # Total number of references to valid blocks. (Count)
system.cpu.icache.tags.sampledRefs                452                       # Sample count of references to valid blocks. (Count)
system.cpu.icache.tags.avgRefs               4.904867                       # Average number of references to valid blocks. ((Count/Count))
system.cpu.icache.tags.warmupTick               77000                       # The tick when the warmup percentage was hit. (Tick)
system.cpu.icache.tags.occupancies::cpu.inst   237.957330                       # Average occupied blocks per tick, per requestor ((Count/Tick))
system.cpu.icache.tags.avgOccs::cpu.inst     0.929521                       # Average percentage of cache occupancy ((Ratio/Tick))
system.cpu.icache.tags.avgOccs::total        0.929521                       # Average percentage of cache occupancy ((Ratio/Tick))
system.cpu.icache.tags.occupanciesTaskId::1024          247                       # Occupied blocks per task id (Count)
system.cpu.icache.tags.ageTaskId_1024::0           44                       # Occupied blocks per task id, per block age (Count)
system.cpu.icache.tags.ageTaskId_1024::3            1                       # Occupied blocks per task id, per block age (Count)
system.cpu.icache.tags.ageTaskId_1024::4          202                       # Occupied blocks per task id, per block age (Count)
system.cpu.icache.tags.ratioOccsTaskId::1024     0.964844                       # Ratio of occupied blocks and all blocks, per task id (Ratio)
system.cpu.icache.tags.tagAccesses               5150                       # Number of tag accesses (Count)
system.cpu.icache.tags.dataAccesses              5150                       # Number of data accesses (Count)
system.cpu.icache.tags.power_state.pwrStateResidencyTicks::UNDEFINED  56647245000                       # Cumulative time (in ticks) in various power states (Tick)
system.cpu.iew.idleCycles                           0                       # Number of cycles IEW is idle (Cycle)
system.cpu.iew.squashCycles                      1144                       # Number of cycles IEW is squashing (Cycle)
system.cpu.iew.blockCycles                      34989                       # Number of cycles IEW is blocking (Cycle)
system.cpu.iew.unblockCycles                 17922266                       # Number of cycles IEW is unblocking (Cycle)
system.cpu.iew.dispatchedInsts               31688430                       # Number of instructions dispatched to IQ (Count)
system.cpu.iew.dispSquashedInsts                   28                       # Number of squashed instructions skipped by dispatch (Count)
system.cpu.iew.dispLoadInsts                  1004299                       # Number of dispatched load instructions (Count)
system.cpu.iew.dispStoreInsts                 2206241                       # Number of dispatched store instructions (Count)
system.cpu.iew.dispNonSpecInsts                    31                       # Number of dispatched non-speculative instructions (Count)
system.cpu.iew.iqFullEvents                        20                       # Number of times the IQ has become full, causing a stall (Count)
system.cpu.iew.lsqFullEvents                 17921094                       # Number of times the LSQ has become full, causing a stall (Count)
system.cpu.iew.memOrderViolationEvents              5                       # Number of memory order violations (Count)
system.cpu.iew.predictedTakenIncorrect            406                       # Number of branches that were predicted taken incorrectly (Count)
system.cpu.iew.predictedNotTakenIncorrect          643                       # Number of branches that were predicted not taken incorrectly (Count)
system.cpu.iew.branchMispredicts                 1049                       # Number of branch mispredicts detected at execute (Count)
system.cpu.iew.instsToCommit                 31681791                       # Cumulative count of insts sent to commit (Count)
system.cpu.iew.writebackCount                31675660                       # Cumulative count of insts written-back (Count)
system.cpu.iew.producerInst                  24178520                       # Number of instructions producing a value (Count)
system.cpu.iew.consumerInst                  40353468                       # Number of instructions consuming a value (Count)
system.cpu.iew.wbRate                        0.559174                       # Insts written-back per cycle ((Count/Cycle))
system.cpu.iew.wbFanout                      0.599168                       # Average fanout of values written-back ((Count/Count))
system.cpu.interrupts.clk_domain.clock          16000                       # Clock period in ticks (Tick)
system.cpu.itb_walker_cache.blockedCycles::no_mshrs            0                       # number of cycles access was blocked (Cycle)
system.cpu.itb_walker_cache.blockedCycles::no_targets            0                       # number of cycles access was blocked (Cycle)
system.cpu.itb_walker_cache.blockedCauses::no_mshrs            0                       # number of times access was blocked (Count)
system.cpu.itb_walker_cache.blockedCauses::no_targets            0                       # number of times access was blocked (Count)
system.cpu.itb_walker_cache.avgBlocked::no_mshrs          nan                       # average number of cycles each access was blocked ((Cycle/Count))
system.cpu.itb_walker_cache.avgBlocked::no_targets          nan                       # average number of cycles each access was blocked ((Cycle/Count))
system.cpu.itb_walker_cache.replacements            0                       # number of replacements (Count)
system.cpu.itb_walker_cache.power_state.pwrStateResidencyTicks::UNDEFINED  56647245000                       # Cumulative time (in ticks) in various power states (Tick)
system.cpu.itb_walker_cache.tags.tagsInUse            0                       # Average ticks per tags in use ((Tick/Count))
system.cpu.itb_walker_cache.tags.totalRefs            0                       # Total number of references to valid blocks. (Count)
system.cpu.itb_walker_cache.tags.sampledRefs            0                       # Sample count of references to valid blocks. (Count)
system.cpu.itb_walker_cache.tags.avgRefs          nan                       # Average number of references to valid blocks. ((Count/Count))
system.cpu.itb_walker_cache.tags.warmupTick            0                       # The tick when the warmup percentage was hit. (Tick)
system.cpu.itb_walker_cache.tags.tagAccesses            0                       # Number of tag accesses (Count)
system.cpu.itb_walker_cache.tags.dataAccesses            0                       # Number of data accesses (Count)
system.cpu.itb_walker_cache.tags.power_state.pwrStateResidencyTicks::UNDEFINED  56647245000                       # Cumulative time (in ticks) in various power states (Tick)
system.cpu.lsq0.forwLoads                         128                       # Number of loads that had data forwarded from stores (Count)
system.cpu.lsq0.squashedLoads                    2111                       # Number of loads squashed (Count)
system.cpu.lsq0.ignoredResponses                    5                       # Number of memory responses ignored because the instruction is squashed (Count)
system.cpu.lsq0.memOrderViolation                   5                       # Number of memory ordering violations (Count)
system.cpu.lsq0.squashedStores                   7031                       # Number of stores squashed (Count)
system.cpu.lsq0.rescheduledLoads                    0                       # Number of loads that were rescheduled (Count)
system.cpu.lsq0.blockedByCache                      7                       # Number of times an access to memory failed due to the cache being blocked (Count)
system.cpu.lsq0.loadToUse::samples            1002188                       # Distribution of cycle latency between the first time a load is issued and its completion (Unspecified)
system.cpu.lsq0.loadToUse::mean              8.674004                       # Distribution of cycle latency between the first time a load is issued and its completion (Unspecified)
[...]
system.mem_ctrls.dram.bwWrite::total        861740620                       # Write bandwidth from this memory ((Byte/Second))
system.mem_ctrls.dram.bwTotal::writebacks    861740620                       # Total bandwidth to/from this memory ((Byte/Second))
system.mem_ctrls.dram.bwTotal::cpu.inst        508410                       # Total bandwidth to/from this memory ((Byte/Second))
system.mem_ctrls.dram.bwTotal::cpu.data     879670529                       # Total bandwidth to/from this memory ((Byte/Second))
system.mem_ctrls.dram.bwTotal::total       1741919558                       # Total bandwidth to/from this memory ((Byte/Second))
system.mem_ctrls.dram.readBursts               778995                       # Number of DRAM read bursts (Count)
system.mem_ctrls.dram.writeBursts              762917                       # Number of DRAM write bursts (Count)
system.mem_ctrls.dram.perBankRdBursts::0        44757                       # Per bank write bursts (Count)
system.mem_ctrls.dram.perBankRdBursts::1        50900                       # Per bank write bursts (Count)
system.mem_ctrls.dram.perBankRdBursts::2        51022                       # Per bank write bursts (Count)
system.mem_ctrls.dram.perBankRdBursts::3        50993                       # Per bank write bursts (Count)
system.mem_ctrls.dram.perBankRdBursts::4        51014                       # Per bank write bursts (Count)
system.mem_ctrls.dram.perBankRdBursts::5        51096                       # Per bank write bursts (Count)
system.mem_ctrls.dram.perBankRdBursts::6        51041                       # Per bank write bursts (Count)
system.mem_ctrls.dram.perBankRdBursts::7        51043                       # Per bank write bursts (Count)
system.mem_ctrls.dram.perBankRdBursts::8        51014                       # Per bank write bursts (Count)
system.mem_ctrls.dram.perBankRdBursts::9        51007                       # Per bank write bursts (Count)
system.mem_ctrls.dram.perBankRdBursts::10        51020                       # Per bank write bursts (Count)
system.mem_ctrls.dram.perBankRdBursts::11        45139                       # Per bank write bursts (Count)
system.mem_ctrls.dram.perBankRdBursts::12        44703                       # Per bank write bursts (Count)
system.mem_ctrls.dram.perBankRdBursts::13        44723                       # Per bank write bursts (Count)
system.mem_ctrls.dram.perBankRdBursts::14        44823                       # Per bank write bursts (Count)
system.mem_ctrls.dram.perBankRdBursts::15        44700                       # Per bank write bursts (Count)
system.mem_ctrls.dram.perBankWrBursts::0        43815                       # Per bank write bursts (Count)
system.mem_ctrls.dram.perBankWrBursts::1        49715                       # Per bank write bursts (Count)
system.mem_ctrls.dram.perBankWrBursts::2        49992                       # Per bank write bursts (Count)
system.mem_ctrls.dram.perBankWrBursts::3        49971                       # Per bank write bursts (Count)
system.mem_ctrls.dram.perBankWrBursts::4        49998                       # Per bank write bursts (Count)
system.mem_ctrls.dram.perBankWrBursts::5        50055                       # Per bank write bursts (Count)
system.mem_ctrls.dram.perBankWrBursts::6        49999                       # Per bank write bursts (Count)
system.mem_ctrls.dram.perBankWrBursts::7        49992                       # Per bank write bursts (Count)
system.mem_ctrls.dram.perBankWrBursts::8        49994                       # Per bank write bursts (Count)
system.mem_ctrls.dram.perBankWrBursts::9        49979                       # Per bank write bursts (Count)
system.mem_ctrls.dram.perBankWrBursts::10        49977                       # Per bank write bursts (Count)
system.mem_ctrls.dram.perBankWrBursts::11        44230                       # Per bank write bursts (Count)
system.mem_ctrls.dram.perBankWrBursts::12        43763                       # Per bank write bursts (Count)
system.mem_ctrls.dram.perBankWrBursts::13        43789                       # Per bank write bursts (Count)
system.mem_ctrls.dram.perBankWrBursts::14        43858                       # Per bank write bursts (Count)
system.mem_ctrls.dram.perBankWrBursts::15        43790                       # Per bank write bursts (Count)
system.mem_ctrls.dram.totQLat              7281727000                       # Total ticks spent queuing (Tick)
system.mem_ctrls.dram.totBusLat            3894975000                       # Total ticks spent in databus transfers (Tick)
system.mem_ctrls.dram.totMemAccLat        21887883250                       # Total ticks spent from burst creation until serviced by the DRAM (Tick)
system.mem_ctrls.dram.avgQLat                 9347.59                       # Average queueing delay per DRAM burst ((Tick/Count))
system.mem_ctrls.dram.avgBusLat               5000.00                       # Average bus latency per DRAM burst ((Tick/Count))
system.mem_ctrls.dram.avgMemAccLat           28097.59                       # Average memory access latency per DRAM burst ((Tick/Count))
system.mem_ctrls.dram.readRowHits              714445                       # Number of row buffer hits during reads (Count)
system.mem_ctrls.dram.writeRowHits             654572                       # Number of row buffer hits during writes (Count)
system.mem_ctrls.dram.readRowHitRate            91.71                       # Row buffer hit rate for reads (Ratio)
system.mem_ctrls.dram.writeRowHitRate           85.80                       # Row buffer hit rate for writes (Ratio)
system.mem_ctrls.dram.bytesPerActivate::samples       172883                       # Bytes accessed per row activation (Byte)
system.mem_ctrls.dram.bytesPerActivate::mean   570.790650                       # Bytes accessed per row activation (Byte)
system.mem_ctrls.dram.bytesPerActivate::gmean   384.974129                       # Bytes accessed per row activation (Byte)
system.mem_ctrls.dram.bytesPerActivate::stdev   392.027871                       # Bytes accessed per row activation (Byte)
system.mem_ctrls.dram.bytesPerActivate::0-127        25737     14.89%     14.89% # Bytes accessed per row activation (Byte)
system.mem_ctrls.dram.bytesPerActivate::128-255        28369     16.41%     31.30% # Bytes accessed per row activation (Byte)
system.mem_ctrls.dram.bytesPerActivate::256-383        16025      9.27%     40.57% # Bytes accessed per row activation (Byte)
system.mem_ctrls.dram.bytesPerActivate::384-511        11096      6.42%     46.98% # Bytes accessed per row activation (Byte)
system.mem_ctrls.dram.bytesPerActivate::512-639        10015      5.79%     52.78% # Bytes accessed per row activation (Byte)
system.mem_ctrls.dram.bytesPerActivate::640-767         8879      5.14%     57.91% # Bytes accessed per row activation (Byte)
system.mem_ctrls.dram.bytesPerActivate::768-895         7849      4.54%     62.45% # Bytes accessed per row activation (Byte)
system.mem_ctrls.dram.bytesPerActivate::896-1023         6112      3.54%     65.99% # Bytes accessed per row activation (Byte)
system.mem_ctrls.dram.bytesPerActivate::1024-1151        58801     34.01%    100.00% # Bytes accessed per row activation (Byte)
system.mem_ctrls.dram.bytesPerActivate::total       172883                       # Bytes accessed per row activation (Byte)
system.mem_ctrls.dram.bytesRead              49855680                       # Total bytes read (Byte)
system.mem_ctrls.dram.bytesWritten           48826688                       # Total bytes written (Byte)
system.mem_ctrls.dram.avgRdBW              880.107762                       # Average DRAM read bandwidth in MiBytes/s ((Byte/Second))
system.mem_ctrls.dram.avgWrBW              861.942854                       # Average DRAM write bandwidth in MiBytes/s ((Byte/Second))
system.mem_ctrls.dram.peakBW                 12800.00                       # Theoretical peak bandwidth in MiByte/s ((Byte/Second))
system.mem_ctrls.dram.busUtil                   13.61                       # Data bus utilization in percentage (Ratio)
system.mem_ctrls.dram.busUtilRead                6.88                       # Data bus utilization in percentage for reads (Ratio)
system.mem_ctrls.dram.busUtilWrite               6.73                       # Data bus utilization in percentage for writes (Ratio)
system.mem_ctrls.dram.pageHitRate               88.79                       # Row buffer hit rate, read and write combined (Ratio)
system.mem_ctrls.dram.power_state.pwrStateResidencyTicks::UNDEFINED  56647245000                       # Cumulative time (in ticks) in various power states (Tick)
system.mem_ctrls.dram.rank0.actEnergy       637966140                       # Energy for activate commands per rank (pJ) (Joule)
system.mem_ctrls.dram.rank0.preEnergy       339064275                       # Energy for precharge commands per rank (pJ) (Joule)
system.mem_ctrls.dram.rank0.readEnergy     2869323240                       # Energy for read commands per rank (pJ) (Joule)
system.mem_ctrls.dram.rank0.writeEnergy    2054263140                       # Energy for write commands per rank (pJ) (Joule)
system.mem_ctrls.dram.rank0.refreshEnergy 4471506000.000001                       # Energy for refresh commands per rank (pJ) (Joule)
system.mem_ctrls.dram.rank0.actBackEnergy  21785052300                       # Energy for active background per rank (pJ) (Joule)
system.mem_ctrls.dram.rank0.preBackEnergy   3407234880                       # Energy for precharge background per rank (pJ) (Joule)
system.mem_ctrls.dram.rank0.actPowerDownEnergy            0                       # Energy for active power-down per rank (pJ) (Joule)
system.mem_ctrls.dram.rank0.prePowerDownEnergy            0                       # Energy for precharge power-down per rank (pJ) (Joule)
system.mem_ctrls.dram.rank0.selfRefreshEnergy            0                       # Energy for self refresh per rank (pJ) (Joule)
system.mem_ctrls.dram.rank0.totalEnergy   35564409975                       # Total energy per rank (pJ) (Joule)
system.mem_ctrls.dram.rank0.averagePower   627.822412                       # Core power per rank (mW) (Watt)
system.mem_ctrls.dram.rank0.totalIdleTime            0                       # Total Idle time Per DRAM Rank (Tick)
system.mem_ctrls.dram.rank0.pwrStateTime::IDLE   8516203750                       # Time in different power states (Tick)
system.mem_ctrls.dram.rank0.pwrStateTime::REF   1891500000                       # Time in different power states (Tick)
system.mem_ctrls.dram.rank0.pwrStateTime::SREF            0                       # Time in different power states (Tick)
system.mem_ctrls.dram.rank0.pwrStateTime::PRE_PDN            0                       # Time in different power states (Tick)
system.mem_ctrls.dram.rank0.pwrStateTime::ACT  46239541250                       # Time in different power states (Tick)
system.mem_ctrls.dram.rank0.pwrStateTime::ACT_PDN            0                       # Time in different power states (Tick)
system.mem_ctrls.dram.rank1.actEnergy       596504160                       # Energy for activate commands per rank (pJ) (Joule)
system.mem_ctrls.dram.rank1.preEnergy       317026710                       # Energy for precharge commands per rank (pJ) (Joule)
system.mem_ctrls.dram.rank1.readEnergy     2692701060                       # Energy for read commands per rank (pJ) (Joule)
system.mem_ctrls.dram.rank1.writeEnergy    1928163600                       # Energy for write commands per rank (pJ) (Joule)
system.mem_ctrls.dram.rank1.refreshEnergy 4471506000.000001                       # Energy for refresh commands per rank (pJ) (Joule)
system.mem_ctrls.dram.rank1.actBackEnergy  21302696640                       # Energy for active background per rank (pJ) (Joule)
system.mem_ctrls.dram.rank1.preBackEnergy   3813429120                       # Energy for precharge background per rank (pJ) (Joule)
system.mem_ctrls.dram.rank1.actPowerDownEnergy            0                       # Energy for active power-down per rank (pJ) (Joule)
system.mem_ctrls.dram.rank1.prePowerDownEnergy            0                       # Energy for precharge power-down per rank (pJ) (Joule)
system.mem_ctrls.dram.rank1.selfRefreshEnergy            0                       # Energy for self refresh per rank (pJ) (Joule)
system.mem_ctrls.dram.rank1.totalEnergy   35122027290                       # Total energy per rank (pJ) (Joule)
system.mem_ctrls.dram.rank1.averagePower   620.012982                       # Core power per rank (mW) (Watt)
system.mem_ctrls.dram.rank1.totalIdleTime            0                       # Total Idle time Per DRAM Rank (Tick)
system.mem_ctrls.dram.rank1.pwrStateTime::IDLE   9578554000                       # Time in different power states (Tick)
system.mem_ctrls.dram.rank1.pwrStateTime::REF   1891500000                       # Time in different power states (Tick)
system.mem_ctrls.dram.rank1.pwrStateTime::SREF            0                       # Time in different power states (Tick)
system.mem_ctrls.dram.rank1.pwrStateTime::PRE_PDN            0                       # Time in different power states (Tick)
system.mem_ctrls.dram.rank1.pwrStateTime::ACT  45177191000                       # Time in different power states (Tick)
system.mem_ctrls.dram.rank1.pwrStateTime::ACT_PDN            0                       # Time in different power states (Tick)
system.mem_ctrls.power_state.pwrStateResidencyTicks::UNDEFINED  56647245000                       # Cumulative time (in ticks) in various power states (Tick)
system.membus.transDist::ReadResp               16353                       # Transaction distribution (Count)
system.membus.transDist::WritebackDirty        762738                       # Transaction distribution (Count)
system.membus.transDist::WritebackClean           205                       # Transaction distribution (Count)
system.membus.transDist::CleanEvict             14846                       # Transaction distribution (Count)
system.membus.transDist::ReadExReq             762707                       # Transaction distribution (Count)
system.membus.transDist::ReadExResp            762707                       # Transaction distribution (Count)
system.membus.transDist::ReadCleanReq             453                       # Transaction distribution (Count)
system.membus.transDist::ReadSharedReq          15901                       # Transaction distribution (Count)
system.membus.pktCount_system.cpu.icache.mem_side_port::system.mem_ctrls.port         1108                       # Packet count per connected requestor and responder (Count)
system.membus.pktCount_system.cpu.icache.mem_side_port::total         1108                       # Packet count per connected requestor and responder (Count)
system.membus.pktCount_system.cpu.dcache.mem_side_port::system.mem_ctrls.port      2334800                       # Packet count per connected requestor and responder (Count)
system.membus.pktCount_system.cpu.dcache.mem_side_port::total      2334800                       # Packet count per connected requestor and responder (Count)
system.membus.pktCount::total                 2335908                       # Packet count per connected requestor and responder (Count)
system.membus.pktSize_system.cpu.icache.mem_side_port::system.mem_ctrls.port        41920                       # Cumulative packet size per connected requestor and responder (Byte)
system.membus.pktSize_system.cpu.icache.mem_side_port::total        41920                       # Cumulative packet size per connected requestor and responder (Byte)
system.membus.pktSize_system.cpu.dcache.mem_side_port::system.mem_ctrls.port     98646144                       # Cumulative packet size per connected requestor and responder (Byte)
system.membus.pktSize_system.cpu.dcache.mem_side_port::total     98646144                       # Cumulative packet size per connected requestor and responder (Byte)
system.membus.pktSize::total                 98688064                       # Cumulative packet size per connected requestor and responder (Byte)
system.membus.snoops                                2                       # Total snoops (Count)
system.membus.snoopTraffic                        128                       # Total snoop traffic (Byte)
system.membus.snoopFanout::samples             779061                       # Request fanout histogram (Count)
system.membus.snoopFanout::mean              0.000004                       # Request fanout histogram (Count)
system.membus.snoopFanout::stdev             0.001962                       # Request fanout histogram (Count)
system.membus.snoopFanout::underflows               0      0.00%      0.00% # Request fanout histogram (Count)
system.membus.snoopFanout::0                   779058    100.00%    100.00% # Request fanout histogram (Count)
system.membus.snoopFanout::1                        3      0.00%    100.00% # Request fanout histogram (Count)
system.membus.snoopFanout::2                        0      0.00%    100.00% # Request fanout histogram (Count)
system.membus.snoopFanout::3                        0      0.00%    100.00% # Request fanout histogram (Count)
system.membus.snoopFanout::4                        0      0.00%    100.00% # Request fanout histogram (Count)
system.membus.snoopFanout::overflows                0      0.00%    100.00% # Request fanout histogram (Count)
system.membus.snoopFanout::min_value                0                       # Request fanout histogram (Count)
system.membus.snoopFanout::max_value                1                       # Request fanout histogram (Count)
system.membus.snoopFanout::total               779061                       # Request fanout histogram (Count)
system.membus.power_state.pwrStateResidencyTicks::UNDEFINED  56647245000                       # Cumulative time (in ticks) in various power states (Tick)
system.membus.reqLayer2.occupancy          4608622000                       # Layer occupancy (ticks) (Tick)
system.membus.reqLayer2.utilization               0.1                       # Layer utilization (Ratio)
system.membus.respLayer1.occupancy            2396250                       # Layer occupancy (ticks) (Tick)
system.membus.respLayer1.utilization              0.0                       # Layer utilization (Ratio)
system.membus.respLayer2.occupancy         4104974750                       # Layer occupancy (ticks) (Tick)
system.membus.respLayer2.utilization              0.1                       # Layer utilization (Ratio)
system.membus.snoop_filter.totRequests        1556850                       # Total number of requests made to the snoop filter. (Count)
system.membus.snoop_filter.hitSingleRequests       777789                       # Number of requests hitting in the snoop filter with a single holder of the requested data. (Count)
system.membus.snoop_filter.hitMultiRequests            3                       # Number of requests hitting in the snoop filter with multiple (>1) holders of the requested data. (Count)
system.membus.snoop_filter.totSnoops                0                       # Total number of snoops made to the snoop filter. (Count)
system.membus.snoop_filter.hitSingleSnoops            0                       # Number of snoops hitting in the snoop filter with a single holder of the requested data. (Count)
system.membus.snoop_filter.hitMultiSnoops            0                       # Number of snoops hitting in the snoop filter with multiple (>1) holders of the requested data. (Count)
system.voltage_domain.voltage                       1                       # Voltage in Volts (Volt)
system.workload.inst.arm                            0                       # number of arm instructions executed (Count)
system.workload.inst.quiesce                        0                       # number of quiesce instructions executed (Count)

---------- End Simulation Statistics   ----------
