
---------- Begin Simulation Statistics ----------
simSeconds                                   0.029686                       # Number of seconds simulated (Second)
simTicks                                  29686378000                       # Number of ticks simulated (Tick)
finalTick                                 29686378000                       # Number of ticks from beginning of simulation (restored from checkpoints and never reset) (Tick)
simFreq                                  1000000000000                       # The number of ticks per simulated second ((Tick/Second))
hostSeconds                                     95.92                       # Real time elapsed on the host (Second)
hostTickRate                                309485496                       # The number of ticks simulated per host second (ticks/s) ((Tick/Second))
hostMemory                                     696620                       # Number of bytes of host memory used (Byte)
simInsts                                     11508013                       # Number of instructions simulated (Count)
simOps                                       22799444                       # Number of ops (including micro ops) simulated (Count)
hostInstRate                                   119973                       # Simulator instruction rate (inst/s) ((Count/Second))
hostOpRate                                     237688                       # Simulator op (including micro ops) rate (op/s) ((Count/Second))
system.clk_domain.clock                          1000                       # Clock period in ticks (Tick)
system.cpu.numCycles                         29686379                       # Number of cpu cycles simulated (Cycle)
system.cpu.numWorkItemsStarted                      0                       # Number of work items this cpu started (Count)
system.cpu.numWorkItemsCompleted                    0                       # Number of work items this cpu completed (Count)
system.cpu.instsAdded                        23051080                       # Number of instructions added to the IQ (excludes non-spec) (Count)
system.cpu.nonSpecInstsAdded                       67                       # Number of non-speculative instructions added to the IQ (Count)
system.cpu.instsIssued                       33476762                       # Number of instructions issued (Count)
system.cpu.squashedInstsIssued                  21512                       # Number of squashed instructions issued (Count)
system.cpu.squashedInstsExamined               251697                       # Number of squashed instructions iterated over during squash; mainly for profiling (Count)
system.cpu.squashedOperandsExamined            454489                       # Number of squashed operands that are examined and possibly removed from graph (Count)
system.cpu.squashedNonSpecRemoved                  66                       # Number of squashed non-spec instructions that were removed (Count)
system.cpu.numIssuedDist::samples            29677199                       # Number of insts issued each cycle (Count)
system.cpu.numIssuedDist::mean               1.128030                       # Number of insts issued each cycle (Count)
system.cpu.numIssuedDist::stdev              1.876660                       # Number of insts issued each cycle (Count)
system.cpu.numIssuedDist::underflows                0      0.00%      0.00% # Number of insts issued each cycle (Count)
system.cpu.numIssuedDist::0                  19132896     64.47%     64.47% # Number of insts issued each cycle (Count)
system.cpu.numIssuedDist::1                   2973730     10.02%     74.49% # Number of insts issued each cycle (Count)
system.cpu.numIssuedDist::2                   1194960      4.03%     78.52% # Number of insts issued each cycle (Count)
system.cpu.numIssuedDist::3                   1741412      5.87%     84.38% # Number of insts issued each cycle (Count)
system.cpu.numIssuedDist::4                   2130091      7.18%     91.56% # Number of insts issued each cycle (Count)
system.cpu.numIssuedDist::5                   1371056      4.62%     96.18% # Number of insts issued each cycle (Count)
system.cpu.numIssuedDist::6                    624940      2.11%     98.29% # Number of insts issued each cycle (Count)
system.cpu.numIssuedDist::7                    301320      1.02%     99.30% # Number of insts issued each cycle (Count)
system.cpu.numIssuedDist::8                    206794      0.70%    100.00% # Number of insts issued each cycle (Count)
system.cpu.numIssuedDist::overflows                 0      0.00%    100.00% # Number of insts issued each cycle (Count)
system.cpu.numIssuedDist::min_value                 0                       # Number of insts issued each cycle (Count)
system.cpu.numIssuedDist::max_value                 8                       # Number of insts issued each cycle (Count)
system.cpu.numIssuedDist::total              29677199                       # Number of insts issued each cycle (Count)
system.cpu.statFuBusy::No_OpClass                   0      0.00%      0.00% # attempts to use FU when none available (Count)
system.cpu.statFuBusy::IntAlu                   76050      1.99%      1.99% # attempts to use FU when none available (Count)
system.cpu.statFuBusy::IntMult                      0      0.00%      1.99% # attempts to use FU when none available (Count)
system.cpu.statFuBusy::IntDiv                       0      0.00%      1.99% # attempts to use FU when none available (Count)
system.cpu.statFuBusy::FloatAdd                     0      0.00%      1.99% # attempts to use FU when none available (Count)
system.cpu.statFuBusy::FloatCmp                     0      0.00%      1.99% # attempts to use FU when none available (Count)
system.cpu.statFuBusy::FloatCvt                     0      0.00%      1.99% # attempts to use FU when none available (Count)
system.cpu.statFuBusy::FloatMult                    0      0.00%      1.99% # attempts to use FU when none available (Count)
system.cpu.statFuBusy::FloatMultAcc                 0      0.00%      1.99% # attempts to use FU when none available (Count)
system.cpu.statFuBusy::FloatDiv                     0      0.00%      1.99% # attempts to use FU when none available (Count)
system.cpu.statFuBusy::FloatMisc                    0      0.00%      1.99% # attempts to use FU when none available (Count)
system.cpu.statFuBusy::FloatSqrt                    0      0.00%      1.99% # attempts to use FU when none available (Count)
system.cpu.statFuBusy::SimdAdd                      0      0.00%      1.99% # attempts to use FU when none available (Count)
system.cpu.statFuBusy::SimdAddAcc                   0      0.00%      1.99% # attempts to use FU when none available (Count)
system.cpu.statFuBusy::SimdAlu                      9      0.00%      1.99% # attempts to use FU when none available (Count)
system.cpu.statFuBusy::SimdCmp                      0      0.00%      1.99% # attempts to use FU when none available (Count)
system.cpu.statFuBusy::SimdCvt                      1      0.00%      1.99% # attempts to use FU when none available (Count)
system.cpu.statFuBusy::SimdMisc                     1      0.00%      1.99% # attempts to use FU when none available (Count)
system.cpu.statFuBusy::SimdMult                     0      0.00%      1.99% # attempts to use FU when none available (Count)
system.cpu.statFuBusy::SimdMultAcc                  0      0.00%      1.99% # attempts to use FU when none available (Count)
system.cpu.statFuBusy::SimdShift                    0      0.00%      1.99% # attempts to use FU when none available (Count)
system.cpu.statFuBusy::SimdShiftAcc                 0      0.00%      1.99% # attempts to use FU when none available (Count)
system.cpu.statFuBusy::SimdDiv                      0      0.00%      1.99% # attempts to use FU when none available (Count)
system.cpu.statFuBusy::SimdSqrt                     0      0.00%      1.99% # attempts to use FU when none available (Count)
system.cpu.statFuBusy::SimdFloatAdd                 0      0.00%      1.99% # attempts to use FU when none available (Count)
system.cpu.statFuBusy::SimdFloatAlu                 0      0.00%      1.99% # attempts to use FU when none available (Count)
system.cpu.statFuBusy::SimdFloatCmp                 0      0.00%      1.99% # attempts to use FU when none available (Count)
system.cpu.statFuBusy::SimdFloatCvt                 0      0.00%      1.99% # attempts to use FU when none available (Count)
system.cpu.statFuBusy::SimdFloatDiv                 0      0.00%      1.99% # attempts to use FU when none available (Count)
system.cpu.statFuBusy::SimdFloatMisc                0      0.00%      1.99% # attempts to use FU when none available (Count)
system.cpu.statFuBusy::SimdFloatMult               65      0.00%      1.99% # attempts to use FU when none available (Count)
system.cpu.statFuBusy::SimdFloatMultAcc             0      0.00%      1.99% # attempts to use FU when none available (Count)
system.cpu.statFuBusy::SimdFloatSqrt                0      0.00%      1.99% # attempts to use FU when none available (Count)
system.cpu.statFuBusy::SimdReduceAdd                0      0.00%      1.99% # attempts to use FU when none available (Count)
system.cpu.statFuBusy::SimdReduceAlu                0      0.00%      1.99% # attempts to use FU when none available (Count)
system.cpu.statFuBusy::SimdReduceCmp                0      0.00%      1.99% # attempts to use FU when none available (Count)
system.cpu.statFuBusy::SimdFloatReduceAdd            0      0.00%      1.99% # attempts to use FU when none available (Count)
system.cpu.statFuBusy::SimdFloatReduceCmp            0      0.00%      1.99% # attempts to use FU when none available (Count)
system.cpu.statFuBusy::SimdAes                      0      0.00%      1.99% # attempts to use FU when none available (Count)
system.cpu.statFuBusy::SimdAesMix                   0      0.00%      1.99% # attempts to use FU when none available (Count)
system.cpu.statFuBusy::SimdSha1Hash                 0      0.00%      1.99% # attempts to use FU when none available (Count)
system.cpu.statFuBusy::SimdSha1Hash2                0      0.00%      1.99% # attempts to use FU when none available (Count)
system.cpu.statFuBusy::SimdSha256Hash               0      0.00%      1.99% # attempts to use FU when none available (Count)
system.cpu.statFuBusy::SimdSha256Hash2              0      0.00%      1.99% # attempts to use FU when none available (Count)
system.cpu.statFuBusy::SimdShaSigma2                0      0.00%      1.99% # attempts to use FU when none available (Count)
system.cpu.statFuBusy::SimdShaSigma3                0      0.00%      1.99% # attempts to use FU when none available (Count)
system.cpu.statFuBusy::SimdPredAlu                  0      0.00%      1.99% # attempts to use FU when none available (Count)
system.cpu.statFuBusy::MemRead                1723266     45.12%     47.11% # attempts to use FU when none available (Count)
system.cpu.statFuBusy::MemWrite                     4      0.00%     47.11% # attempts to use FU when none available (Count)
system.cpu.statFuBusy::FloatMemRead           2019974     52.89%    100.00% # attempts to use FU when none available (Count)
system.cpu.statFuBusy::FloatMemWrite               13      0.00%    100.00% # attempts to use FU when none available (Count)
system.cpu.statFuBusy::IprAccess                    0      0.00%    100.00% # attempts to use FU when none available (Count)
system.cpu.statFuBusy::InstPrefetch                 0      0.00%    100.00% # attempts to use FU when none available (Count)
system.cpu.statIssuedInstType_0::No_OpClass        24734      0.07%      0.07% # Number of instructions issued per FU type, per thread (Count)
system.cpu.statIssuedInstType_0::IntAlu      11609819     34.68%     34.75% # Number of instructions issued per FU type, per thread (Count)
system.cpu.statIssuedInstType_0::IntMult            4      0.00%     34.75% # Number of instructions issued per FU type, per thread (Count)
system.cpu.statIssuedInstType_0::IntDiv            18      0.00%     34.75% # Number of instructions issued per FU type, per thread (Count)
system.cpu.statIssuedInstType_0::FloatAdd      3202388      9.57%     44.32% # Number of instructions issued per FU type, per thread (Count)
system.cpu.statIssuedInstType_0::FloatCmp            0      0.00%     44.32% # Number of instructions issued per FU type, per thread (Count)
system.cpu.statIssuedInstType_0::FloatCvt            0      0.00%     44.32% # Number of instructions issued per FU type, per thread (Count)
system.cpu.statIssuedInstType_0::FloatMult            0      0.00%     44.32% # Number of instructions issued per FU type, per thread (Count)
system.cpu.statIssuedInstType_0::FloatMultAcc            0      0.00%     44.32% # Number of instructions issued per FU type, per thread (Count)
system.cpu.statIssuedInstType_0::FloatDiv            0      0.00%     44.32% # Number of instructions issued per FU type, per thread (Count)
system.cpu.statIssuedInstType_0::FloatMisc            0      0.00%     44.32% # Number of instructions issued per FU type, per thread (Count)
system.cpu.statIssuedInstType_0::FloatSqrt            0      0.00%     44.32% # Number of instructions issued per FU type, per thread (Count)
system.cpu.statIssuedInstType_0::SimdAdd          378      0.00%     44.32% # Number of instructions issued per FU type, per thread (Count)
system.cpu.statIssuedInstType_0::SimdAddAcc            0      0.00%     44.32% # Number of instructions issued per FU type, per thread (Count)
system.cpu.statIssuedInstType_0::SimdAlu        49961      0.15%     44.47% # Number of instructions issued per FU type, per thread (Count)
system.cpu.statIssuedInstType_0::SimdCmp            0      0.00%     44.47% # Number of instructions issued per FU type, per thread (Count)
system.cpu.statIssuedInstType_0::SimdCvt          111      0.00%     44.47% # Number of instructions issued per FU type, per thread (Count)
system.cpu.statIssuedInstType_0::SimdMisc          212      0.00%     44.47% # Number of instructions issued per FU type, per thread (Count)
system.cpu.statIssuedInstType_0::SimdMult            0      0.00%     44.47% # Number of instructions issued per FU type, per thread (Count)
system.cpu.statIssuedInstType_0::SimdMultAcc            0      0.00%     44.47% # Number of instructions issued per FU type, per thread (Count)
system.cpu.statIssuedInstType_0::SimdShift          186      0.00%     44.47% # Number of instructions issued per FU type, per thread (Count)
system.cpu.statIssuedInstType_0::SimdShiftAcc            0      0.00%     44.47% # Number of instructions issued per FU type, per thread (Count)
system.cpu.statIssuedInstType_0::SimdDiv            0      0.00%     44.47% # Number of instructions issued per FU type, per thread (Count)
system.cpu.statIssuedInstType_0::SimdSqrt            0      0.00%     44.47% # Number of instructions issued per FU type, per thread (Count)
system.cpu.statIssuedInstType_0::SimdFloatAdd      1605013      4.79%     49.27% # Number of instructions issued per FU type, per thread (Count)
system.cpu.statIssuedInstType_0::SimdFloatAlu            0      0.00%     49.27% # Number of instructions issued per FU type, per thread (Count)
system.cpu.statIssuedInstType_0::SimdFloatCmp            0      0.00%     49.27% # Number of instructions issued per FU type, per thread (Count)
system.cpu.statIssuedInstType_0::SimdFloatCvt            0      0.00%     49.27% # Number of instructions issued per FU type, per thread (Count)
system.cpu.statIssuedInstType_0::SimdFloatDiv            0      0.00%     49.27% # Number of instructions issued per FU type, per thread (Count)
system.cpu.statIssuedInstType_0::SimdFloatMisc            0      0.00%     49.27% # Number of instructions issued per FU type, per thread (Count)
system.cpu.statIssuedInstType_0::SimdFloatMult      1580456      4.72%     53.99% # Number of instructions issued per FU type, per thread (Count)
system.cpu.statIssuedInstType_0::SimdFloatMultAcc            0      0.00%     53.99% # Number of instructions issued per FU type, per thread (Count)
system.cpu.statIssuedInstType_0::SimdFloatSqrt            0      0.00%     53.99% # Number of instructions issued per FU type, per thread (Count)
system.cpu.statIssuedInstType_0::SimdReduceAdd            0      0.00%     53.99% # Number of instructions issued per FU type, per thread (Count)
system.cpu.statIssuedInstType_0::SimdReduceAlu            0      0.00%     53.99% # Number of instructions issued per FU type, per thread (Count)
system.cpu.statIssuedInstType_0::SimdReduceCmp            0      0.00%     53.99% # Number of instructions issued per FU type, per thread (Count)
system.cpu.statIssuedInstType_0::SimdFloatReduceAdd            0      0.00%     53.99% # Number of instructions issued per FU type, per thread (Count)
system.cpu.statIssuedInstType_0::SimdFloatReduceCmp            0      0.00%     53.99% # Number of instructions issued per FU type, per thread (Count)
system.cpu.statIssuedInstType_0::SimdAes            0      0.00%     53.99% # Number of instructions issued per FU type, per thread (Count)
system.cpu.statIssuedInstType_0::SimdAesMix            0      0.00%     53.99% # Number of instructions issued per FU type, per thread (Count)
system.cpu.statIssuedInstType_0::SimdSha1Hash            0      0.00%     53.99% # Number of instructions issued per FU type, per thread (Count)
system.cpu.statIssuedInstType_0::SimdSha1Hash2            0      0.00%     53.99% # Number of instructions issued per FU type, per thread (Count)
system.cpu.statIssuedInstType_0::SimdSha256Hash            0      0.00%     53.99% # Number of instructions issued per FU type, per thread (Count)
system.cpu.statIssuedInstType_0::SimdSha256Hash2            0      0.00%     53.99% # Number of instructions issued per FU type, per thread (Count)
system.cpu.statIssuedInstType_0::SimdShaSigma2            0      0.00%     53.99% # Number of instructions issued per FU type, per thread (Count)
system.cpu.statIssuedInstType_0::SimdShaSigma3            0      0.00%     53.99% # Number of instructions issued per FU type, per thread (Count)
system.cpu.statIssuedInstType_0::SimdPredAlu            0      0.00%     53.99% # Number of instructions issued per FU type, per thread (Count)
system.cpu.statIssuedInstType_0::MemRead      5690844     17.00%     70.99% # Number of instructions issued per FU type, per thread (Count)
system.cpu.statIssuedInstType_0::MemWrite         1336      0.00%     70.99% # Number of instructions issued per FU type, per thread (Count)
system.cpu.statIssuedInstType_0::FloatMemRead      9686273     28.93%     99.93% # Number of instructions issued per FU type, per thread (Count)
system.cpu.statIssuedInstType_0::FloatMemWrite        25029      0.07%    100.00% # Number of instructions issued per FU type, per thread (Count)
system.cpu.statIssuedInstType_0::IprAccess            0      0.00%    100.00% # Number of instructions issued per FU type, per thread (Count)
system.cpu.statIssuedInstType_0::InstPrefetch            0      0.00%    100.00% # Number of instructions issued per FU type, per thread (Count)
system.cpu.statIssuedInstType_0::total       33476762                       # Number of instructions issued per FU type, per thread (Count)
system.cpu.issueRate                         1.127681                       # Inst issue rate ((Count/Cycle))
system.cpu.fuBusy                             3819383                       # FU busy when requested (Count)
system.cpu.fuBusyRate                        0.114091                       # FU busy rate (busy events/executed inst) ((Count/Count))
system.cpu.intInstQueueReads                 66141677                       # Number of integer instruction queue reads (Count)
system.cpu.intInstQueueWrites                13475114                       # Number of integer instruction queue writes (Count)
system.cpu.intInstQueueWakeupAccesses        13248426                       # Number of integer instruction queue wakeup accesses (Count)
system.cpu.fpInstQueueReads                  34329941                       # Number of floating instruction queue reads (Count)
system.cpu.fpInstQueueWrites                  9827739                       # Number of floating instruction queue writes (Count)
system.cpu.fpInstQueueWakeupAccesses          9641405                       # Number of floating instruction queue wakeup accesses (Count)
system.cpu.vecInstQueueReads                        0                       # Number of vector instruction queue reads (Count)
system.cpu.vecInstQueueWrites                       0                       # Number of vector instruction queue writes (Count)
system.cpu.vecInstQueueWakeupAccesses               0                       # Number of vector instruction queue wakeup accesses (Count)
system.cpu.intAluAccesses                    19100824                       # Number of integer alu accesses (Count)
system.cpu.fpAluAccesses                     18170587                       # Number of floating point alu accesses (Count)
system.cpu.vecAluAccesses                           0                       # Number of vector alu accesses (Count)
system.cpu.numInsts                          33440893                       # Number of executed instructions (Count)
system.cpu.numLoadInsts                      15368895                       # Number of load instructions executed (Count)
system.cpu.numSquashedInsts                     35869                       # Number of squashed instructions skipped in execute (Count)
system.cpu.numSwp                                   0                       # Number of swp insts executed (Count)
system.cpu.numNop                                   0                       # Number of nop insts executed (Count)
system.cpu.numRefs                           15395182                       # Number of memory reference insts executed (Count)
system.cpu.numBranches                        1633869                       # Number of branches executed (Count)
system.cpu.numStoreInsts                        26287                       # Number of stores executed (Count)
system.cpu.numRate                           1.126473                       # Inst execution rate ((Count/Cycle))
system.cpu.timesIdled                             252                       # Number of times that the entire CPU went into an idle state and unscheduled itself (Count)
system.cpu.idleCycles                            9180                       # Total number of cycles that the CPU has spent unscheduled due to idling (Cycle)
system.cpu.committedInsts                    11508013                       # Number of Instructions Simulated (Count)
system.cpu.committedOps                      22799444                       # Number of Ops (including micro ops) Simulated (Count)
system.cpu.cpi                               2.579627                       # CPI: Cycles Per Instruction ((Cycle/Count))
system.cpu.totalCpi                          2.579627                       # CPI: Total CPI of All Threads ((Cycle/Count))
system.cpu.ipc                               0.387653                       # IPC: Instructions Per Cycle ((Count/Cycle))
system.cpu.totalIpc                          0.387653                       # IPC: Total IPC of All Threads ((Count/Cycle))
system.cpu.intRegfileReads                   42220095                       # Number of integer regfile reads (Count)
system.cpu.intRegfileWrites                   9954004                       # Number of integer regfile writes (Count)
system.cpu.fpRegfileReads                     9684573                       # Number of floating regfile reads (Count)
system.cpu.fpRegfileWrites                    9617027                       # Number of floating regfile writes (Count)
system.cpu.ccRegfileReads                     8189983                       # number of cc regfile reads (Count)
system.cpu.ccRegfileWrites                    6696009                       # number of cc regfile writes (Count)
system.cpu.miscRegfileReads                  18671126                       # number of misc regfile reads (Count)
system.cpu.miscRegfileWrites                        1                       # number of misc regfile writes (Count)
system.cpu.MemDepUnit__0.insertedLoads        4876884                       # Number of loads inserted to the mem dependence unit. (Count)
system.cpu.MemDepUnit__0.insertedStores         26881                       # Number of stores inserted to the mem dependence unit. (Count)
system.cpu.MemDepUnit__0.conflictingLoads         1017                       # Number of conflicting loads. (Count)
system.cpu.MemDepUnit__0.conflictingStores         1016                       # Number of conflicting stores. (Count)
system.cpu.MemDepUnit__1.insertedLoads              0                       # Number of loads inserted to the mem dependence unit. (Count)
system.cpu.MemDepUnit__1.insertedStores             0                       # Number of stores inserted to the mem dependence unit. (Count)
system.cpu.MemDepUnit__1.conflictingLoads            0                       # Number of conflicting loads. (Count)
system.cpu.MemDepUnit__1.conflictingStores            0                       # Number of conflicting stores. (Count)
system.cpu.MemDepUnit__2.insertedLoads              0                       # Number of loads inserted to the mem dependence unit. (Count)
system.cpu.MemDepUnit__2.insertedStores             0                       # Number of stores inserted to the mem dependence unit. (Count)
system.cpu.MemDepUnit__2.conflictingLoads            0                       # Number of conflicting loads. (Count)
system.cpu.MemDepUnit__2.conflictingStores            0                       # Number of conflicting stores. (Count)
system.cpu.MemDepUnit__3.insertedLoads              0                       # Number of loads inserted to the mem dependence unit. (Count)
system.cpu.MemDepUnit__3.insertedStores             0                       # Number of stores inserted to the mem dependence unit. (Count)
system.cpu.MemDepUnit__3.conflictingLoads            0                       # Number of conflicting loads. (Count)
system.cpu.MemDepUnit__3.conflictingStores            0                       # Number of conflicting stores. (Count)
system.cpu.branchPred.lookups                 1731115                       # Number of BP lookups (Count)
system.cpu.branchPred.condPredicted           1729359                       # Number of conditional branches predicted (Count)
system.cpu.branchPred.condIncorrect             25410                       # Number of conditional branches incorrect (Count)
system.cpu.branchPred.BTBLookups              1704229                       # Number of BTB lookups (Count)
system.cpu.branchPred.BTBUpdates                 1331                       # Number of BTB updates (Count)
system.cpu.branchPred.BTBHits                 1703515                       # Number of BTB hits (Count)
system.cpu.branchPred.BTBHitRatio            0.999581                       # BTB Hit Ratio (Ratio)
system.cpu.branchPred.RASUsed                     275                       # Number of times the RAS was used to get a target. (Count)
system.cpu.branchPred.RASIncorrect                  1                       # Number of incorrect RAS predictions. (Count)
system.cpu.branchPred.indirectLookups             274                       # Number of indirect predictor lookups. (Count)
system.cpu.branchPred.indirectHits                  9                       # Number of indirect target hits. (Count)
system.cpu.branchPred.indirectMisses              265                       # Number of indirect misses. (Count)
system.cpu.branchPred.indirectMispredicted           82                       # Number of mispredicted indirect branches. (Count)
system.cpu.commit.commitSquashedInsts          258795                       # The number of squashed insts skipped by commit (Count)
system.cpu.commit.commitNonSpecStalls               1                       # The number of times commit has been forced to stall to communicate backwards (Count)
system.cpu.commit.branchMispredicts             25223                       # The number of times a branch was mispredicted (Count)
system.cpu.commit.numCommittedDist::samples     29629867                       # Number of insts commited each cycle (Count)
system.cpu.commit.numCommittedDist::mean     0.769475                       # Number of insts commited each cycle (Count)
system.cpu.commit.numCommittedDist::stdev     2.052212                       # Number of insts commited each cycle (Count)
system.cpu.commit.numCommittedDist::underflows            0      0.00%      0.00% # Number of insts commited each cycle (Count)
system.cpu.commit.numCommittedDist::0        25027353     84.47%     84.47% # Number of insts commited each cycle (Count)
system.cpu.commit.numCommittedDist::1           90156      0.30%     84.77% # Number of insts commited each cycle (Count)
system.cpu.commit.numCommittedDist::2         1226270      4.14%     88.91% # Number of insts commited each cycle (Count)
system.cpu.commit.numCommittedDist::3           66358      0.22%     89.13% # Number of insts commited each cycle (Count)
system.cpu.commit.numCommittedDist::4         1295319      4.37%     93.51% # Number of insts commited each cycle (Count)
system.cpu.commit.numCommittedDist::5           41232      0.14%     93.64% # Number of insts commited each cycle (Count)
system.cpu.commit.numCommittedDist::6          194059      0.65%     94.30% # Number of insts commited each cycle (Count)
system.cpu.commit.numCommittedDist::7            7076      0.02%     94.32% # Number of insts commited each cycle (Count)
system.cpu.commit.numCommittedDist::8         1682044      5.68%    100.00% # Number of insts commited each cycle (Count)
system.cpu.commit.numCommittedDist::overflows            0      0.00%    100.00% # Number of insts commited each cycle (Count)
system.cpu.commit.numCommittedDist::min_value            0                       # Number of insts commited each cycle (Count)
system.cpu.commit.numCommittedDist::max_value            8                       # Number of insts commited each cycle (Count)
system.cpu.commit.numCommittedDist::total     29629867                       # Number of insts commited each cycle (Count)
system.cpu.commit.instsCommitted             11508013                       # Number of instructions committed (Count)
system.cpu.commit.opsCommitted               22799444                       # Number of ops (including micro ops) committed (Count)
system.cpu.commit.memRefs                     4842082                       # Number of memory references committed (Count)
system.cpu.commit.loads                       4816180                       # Number of loads committed (Count)
system.cpu.commit.amos                              0                       # Number of atomic instructions committed (Count)
system.cpu.commit.membars                           0                       # Number of memory barriers committed (Count)
system.cpu.commit.branches                    1631502                       # Number of branches committed (Count)
system.cpu.commit.vectorInstructions                0                       # Number of committed Vector instructions. (Count)
system.cpu.commit.floating                    9607457                       # Number of committed floating point instructions. (Count)
system.cpu.commit.integer                    16378486                       # Number of committed integer instructions. (Count)
system.cpu.commit.functionCalls                   127                       # Number of function calls committed. (Count)
system.cpu.commit.committedInstType_0::No_OpClass        23970      0.11%      0.11% # Class of committed instruction (Count)
system.cpu.commit.committedInstType_0::IntAlu     11536934     50.60%     50.71% # Class of committed instruction (Count)
system.cpu.commit.committedInstType_0::IntMult            4      0.00%     50.71% # Class of committed instruction (Count)
system.cpu.commit.committedInstType_0::IntDiv           14      0.00%     50.71% # Class of committed instruction (Count)
system.cpu.commit.committedInstType_0::FloatAdd      3160882     13.86%     64.57% # Class of committed instruction (Count)
system.cpu.commit.committedInstType_0::FloatCmp            0      0.00%     64.57% # Class of committed instruction (Count)
system.cpu.commit.committedInstType_0::FloatCvt            0      0.00%     64.57% # Class of committed instruction (Count)
system.cpu.commit.committedInstType_0::FloatMult            0      0.00%     64.57% # Class of committed instruction (Count)
system.cpu.commit.committedInstType_0::FloatMultAcc            0      0.00%     64.57% # Class of committed instruction (Count)
system.cpu.commit.committedInstType_0::FloatDiv            0      0.00%     64.57% # Class of committed instruction (Count)
system.cpu.commit.committedInstType_0::FloatMisc            0      0.00%     64.57% # Class of committed instruction (Count)
system.cpu.commit.committedInstType_0::FloatSqrt            0      0.00%     64.57% # Class of committed instruction (Count)
system.cpu.commit.committedInstType_0::SimdAdd          374      0.00%     64.57% # Class of committed instruction (Count)
system.cpu.commit.committedInstType_0::SimdAddAcc            0      0.00%     64.57% # Class of committed instruction (Count)
system.cpu.commit.committedInstType_0::SimdAlu        49228      0.22%     64.79% # Class of committed instruction (Count)
system.cpu.commit.committedInstType_0::SimdCmp            0      0.00%     64.79% # Class of committed instruction (Count)
system.cpu.commit.committedInstType_0::SimdCvt          110      0.00%     64.79% # Class of committed instruction (Count)
system.cpu.commit.committedInstType_0::SimdMisc          212      0.00%     64.79% # Class of committed instruction (Count)
system.cpu.commit.committedInstType_0::SimdMult            0      0.00%     64.79% # Class of committed instruction (Count)
system.cpu.commit.committedInstType_0::SimdMultAcc            0      0.00%     64.79% # Class of committed instruction (Count)
system.cpu.commit.committedInstType_0::SimdShift          186      0.00%     64.79% # Class of committed instruction (Count)
system.cpu.commit.committedInstType_0::SimdShiftAcc            0      0.00%     64.79% # Class of committed instruction (Count)
system.cpu.commit.committedInstType_0::SimdDiv            0      0.00%     64.79% # Class of committed instruction (Count)
system.cpu.commit.committedInstType_0::SimdSqrt            0      0.00%     64.79% # Class of committed instruction (Count)
system.cpu.commit.committedInstType_0::SimdFloatAdd      1605012      7.04%     71.83% # Class of committed instruction (Count)
system.cpu.commit.committedInstType_0::SimdFloatAlu            0      0.00%     71.83% # Class of committed instruction (Count)
system.cpu.commit.committedInstType_0::SimdFloatCmp            0      0.00%     71.83% # Class of committed instruction (Count)
system.cpu.commit.committedInstType_0::SimdFloatCvt            0      0.00%     71.83% # Class of committed instruction (Count)
system.cpu.commit.committedInstType_0::SimdFloatDiv            0      0.00%     71.83% # Class of committed instruction (Count)
system.cpu.commit.committedInstType_0::SimdFloatMisc            0      0.00%     71.83% # Class of committed instruction (Count)
system.cpu.commit.committedInstType_0::SimdFloatMult      1580436      6.93%     78.76% # Class of committed instruction (Count)
system.cpu.commit.committedInstType_0::SimdFloatMultAcc            0      0.00%     78.76% # Class of committed instruction (Count)
system.cpu.commit.committedInstType_0::SimdFloatSqrt            0      0.00%     78.76% # Class of committed instruction (Count)
system.cpu.commit.committedInstType_0::SimdReduceAdd            0      0.00%     78.76% # Class of committed instruction (Count)
system.cpu.commit.committedInstType_0::SimdReduceAlu            0      0.00%     78.76% # Class of committed instruction (Count)
system.cpu.commit.committedInstType_0::SimdReduceCmp            0      0.00%     78.76% # Class of committed instruction (Count)
system.cpu.commit.committedInstType_0::SimdFloatReduceAdd            0      0.00%     78.76% # Class of committed instruction (Count)
system.cpu.commit.committedInstType_0::SimdFloatReduceCmp            0      0.00%     78.76% # Class of committed instruction (Count)
system.cpu.commit.committedInstType_0::SimdAes            0      0.00%     78.76% # Class of committed instruction (Count)
system.cpu.commit.committedInstType_0::SimdAesMix            0      0.00%     78.76% # Class of committed instruction (Count)
system.cpu.commit.committedInstType_0::SimdSha1Hash            0      0.00%     78.76% # Class of committed instruction (Count)
system.cpu.commit.committedInstType_0::SimdSha1Hash2            0      0.00%     78.76% # Class of committed instruction (Count)
system.cpu.commit.committedInstType_0::SimdSha256Hash            0      0.00%     78.76% # Class of committed instruction (Count)
system.cpu.commit.committedInstType_0::SimdSha256Hash2            0      0.00%     78.76% # Class of committed instruction (Count)
system.cpu.commit.committedInstType_0::SimdShaSigma2            0      0.00%     78.76% # Class of committed instruction (Count)
system.cpu.commit.committedInstType_0::SimdShaSigma3            0      0.00%     78.76% # Class of committed instruction (Count)
system.cpu.commit.committedInstType_0::SimdPredAlu            0      0.00%     78.76% # Class of committed instruction (Count)
system.cpu.commit.committedInstType_0::MemRead      1630678      7.15%     85.91% # Class of committed instruction (Count)
system.cpu.commit.committedInstType_0::MemWrite          899      0.00%     85.92% # Class of committed instruction (Count)
system.cpu.commit.committedInstType_0::FloatMemRead      3185502     13.97%     99.89% # Class of committed instruction (Count)
system.cpu.commit.committedInstType_0::FloatMemWrite        25003      0.11%    100.00% # Class of committed instruction (Count)
system.cpu.commit.committedInstType_0::IprAccess            0      0.00%    100.00% # Class of committed instruction (Count)
system.cpu.commit.committedInstType_0::InstPrefetch            0      0.00%    100.00% # Class of committed instruction (Count)
system.cpu.commit.committedInstType_0::total     22799444                       # Class of committed instruction (Count)
system.cpu.commit.commitEligibleSamples       1682044                       # number cycles where commit BW limit reached (Cycle)
system.cpu.dcache.demandHits::cpu.data        2547712                       # number of demand (read+write) hits (Count)
system.cpu.dcache.demandHits::total           2547712                       # number of demand (read+write) hits (Count)
system.cpu.dcache.overallHits::cpu.data       2547712                       # number of overall hits (Count)
system.cpu.dcache.overallHits::total          2547712                       # number of overall hits (Count)
system.cpu.dcache.demandMisses::cpu.data      2402873                       # number of demand (read+write) misses (Count)
system.cpu.dcache.demandMisses::total         2402873                       # number of demand (read+write) misses (Count)
system.cpu.dcache.overallMisses::cpu.data      2402873                       # number of overall misses (Count)
system.cpu.dcache.overallMisses::total        2402873                       # number of overall misses (Count)
system.cpu.dcache.demandMissLatency::cpu.data 153153866999                       # number of demand (read+write) miss ticks (Tick)
system.cpu.dcache.demandMissLatency::total 153153866999                       # number of demand (read+write) miss ticks (Tick)
system.cpu.dcache.overallMissLatency::cpu.data 153153866999                       # number of overall miss ticks (Tick)
system.cpu.dcache.overallMissLatency::total 153153866999                       # number of overall miss ticks (Tick)
system.cpu.dcache.demandAccesses::cpu.data      4950585                       # number of demand (read+write) accesses (Count)
system.cpu.dcache.demandAccesses::total       4950585                       # number of demand (read+write) accesses (Count)
system.cpu.dcache.overallAccesses::cpu.data      4950585                       # number of overall (read+write) accesses (Count)
system.cpu.dcache.overallAccesses::total      4950585                       # number of overall (read+write) accesses (Count)
system.cpu.dcache.demandMissRate::cpu.data     0.485372                       # miss rate for demand accesses (Ratio)
system.cpu.dcache.demandMissRate::total      0.485372                       # miss rate for demand accesses (Ratio)
system.cpu.dcache.overallMissRate::cpu.data     0.485372                       # miss rate for overall accesses (Ratio)
system.cpu.dcache.overallMissRate::total     0.485372                       # miss rate for overall accesses (Ratio)
system.cpu.dcache.demandAvgMissLatency::cpu.data 63737.811777                       # average overall miss latency in ticks ((Tick/Count))
system.cpu.dcache.demandAvgMissLatency::total 63737.811777                       # average overall miss latency in ticks ((Tick/Count))
system.cpu.dcache.overallAvgMissLatency::cpu.data 63737.811777                       # average overall miss latency ((Tick/Count))
system.cpu.dcache.overallAvgMissLatency::total 63737.811777                       # average overall miss latency ((Tick/Count))
system.cpu.dcache.blockedCycles::no_mshrs     22106948                       # number of cycles access was blocked (Cycle)
system.cpu.dcache.blockedCycles::no_targets            0                       # number of cycles access was blocked (Cycle)
system.cpu.dcache.blockedCauses::no_mshrs      1172362                       # number of times access was blocked (Count)
system.cpu.dcache.blockedCauses::no_targets            0                       # number of times access was blocked (Count)
system.cpu.dcache.avgBlocked::no_mshrs      18.856759                       # average number of cycles each access was blocked ((Cycle/Count))
system.cpu.dcache.avgBlocked::no_targets          nan                       # average number of cycles each access was blocked ((Cycle/Count))
system.cpu.dcache.writebacks::writebacks         1865                       # number of writebacks (Count)
system.cpu.dcache.writebacks::total              1865                       # number of writebacks (Count)
system.cpu.dcache.demandMshrHits::cpu.data       962356                       # number of demand (read+write) MSHR hits (Count)
system.cpu.dcache.demandMshrHits::total        962356                       # number of demand (read+write) MSHR hits (Count)
system.cpu.dcache.overallMshrHits::cpu.data       962356                       # number of overall MSHR hits (Count)
system.cpu.dcache.overallMshrHits::total       962356                       # number of overall MSHR hits (Count)
system.cpu.dcache.demandMshrMisses::cpu.data      1440517                       # number of demand (read+write) MSHR misses (Count)
system.cpu.dcache.demandMshrMisses::total      1440517                       # number of demand (read+write) MSHR misses (Count)
system.cpu.dcache.overallMshrMisses::cpu.data      1440517                       # number of overall MSHR misses (Count)
system.cpu.dcache.overallMshrMisses::total      1440517                       # number of overall MSHR misses (Count)
system.cpu.dcache.demandMshrMissLatency::cpu.data 105439926000                       # number of demand (read+write) MSHR miss ticks (Tick)
system.cpu.dcache.demandMshrMissLatency::total 105439926000                       # number of demand (read+write) MSHR miss ticks (Tick)
system.cpu.dcache.overallMshrMissLatency::cpu.data 105439926000                       # number of overall MSHR miss ticks (Tick)
system.cpu.dcache.overallMshrMissLatency::total 105439926000                       # number of overall MSHR miss ticks (Tick)
system.cpu.dcache.demandMshrMissRate::cpu.data     0.290979                       # mshr miss ratio for demand accesses (Ratio)
system.cpu.dcache.demandMshrMissRate::total     0.290979                       # mshr miss ratio for demand accesses (Ratio)
system.cpu.dcache.overallMshrMissRate::cpu.data     0.290979                       # mshr miss ratio for overall accesses (Ratio)
system.cpu.dcache.overallMshrMissRate::total     0.290979                       # mshr miss ratio for overall accesses (Ratio)
system.cpu.dcache.demandAvgMshrMissLatency::cpu.data 73195.891475                       # average overall mshr miss latency ((Tick/Count))
system.cpu.dcache.demandAvgMshrMissLatency::total 73195.891475                       # average overall mshr miss latency ((Tick/Count))
system.cpu.dcache.overallAvgMshrMissLatency::cpu.data 73195.891475                       # average overall mshr miss latency ((Tick/Count))
system.cpu.dcache.overallAvgMshrMissLatency::total 73195.891475                       # average overall mshr miss latency ((Tick/Count))
system.cpu.dcache.replacements                1439493                       # number of replacements (Count)
system.cpu.dcache.ReadReq.hits::cpu.data      2521916                       # number of ReadReq hits (Count)
system.cpu.dcache.ReadReq.hits::total         2521916                       # number of ReadReq hits (Count)
system.cpu.dcache.ReadReq.misses::cpu.data      2402766                       # number of ReadReq misses (Count)
system.cpu.dcache.ReadReq.misses::total       2402766                       # number of ReadReq misses (Count)
system.cpu.dcache.ReadReq.missLatency::cpu.data 153147617000                       # number of ReadReq miss ticks (Tick)
system.cpu.dcache.ReadReq.missLatency::total 153147617000                       # number of ReadReq miss ticks (Tick)
system.cpu.dcache.ReadReq.accesses::cpu.data      4924682                       # number of ReadReq accesses(hits+misses) (Count)
system.cpu.dcache.ReadReq.accesses::total      4924682                       # number of ReadReq accesses(hits+misses) (Count)
system.cpu.dcache.ReadReq.missRate::cpu.data     0.487903                       # miss rate for ReadReq accesses (Ratio)
system.cpu.dcache.ReadReq.missRate::total     0.487903                       # miss rate for ReadReq accesses (Ratio)
system.cpu.dcache.ReadReq.avgMissLatency::cpu.data 63738.048982                       # average ReadReq miss latency ((Tick/Count))
system.cpu.dcache.ReadReq.avgMissLatency::total 63738.048982                       # average ReadReq miss latency ((Tick/Count))
system.cpu.dcache.ReadReq.mshrHits::cpu.data       962352                       # number of ReadReq MSHR hits (Count)
system.cpu.dcache.ReadReq.mshrHits::total       962352                       # number of ReadReq MSHR hits (Count)
system.cpu.dcache.ReadReq.mshrMisses::cpu.data      1440414                       # number of ReadReq MSHR misses (Count)
system.cpu.dcache.ReadReq.mshrMisses::total      1440414                       # number of ReadReq MSHR misses (Count)
system.cpu.dcache.ReadReq.mshrMissLatency::cpu.data 105434001000                       # number of ReadReq MSHR miss ticks (Tick)
system.cpu.dcache.ReadReq.mshrMissLatency::total 105434001000                       # number of ReadReq MSHR miss ticks (Tick)
system.cpu.dcache.ReadReq.mshrMissRate::cpu.data     0.292489                       # mshr miss rate for ReadReq accesses (Ratio)
system.cpu.dcache.ReadReq.mshrMissRate::total     0.292489                       # mshr miss rate for ReadReq accesses (Ratio)
system.cpu.dcache.ReadReq.avgMshrMissLatency::cpu.data 73197.012109                       # average ReadReq mshr miss latency ((Tick/Count))
system.cpu.dcache.ReadReq.avgMshrMissLatency::total 73197.012109                       # average ReadReq mshr miss latency ((Tick/Count))
system.cpu.dcache.WriteReq.hits::cpu.data        25796                       # number of WriteReq hits (Count)
system.cpu.dcache.WriteReq.hits::total          25796                       # number of WriteReq hits (Count)
system.cpu.dcache.WriteReq.misses::cpu.data          107                       # number of WriteReq misses (Count)
system.cpu.dcache.WriteReq.misses::total          107                       # number of WriteReq misses (Count)
system.cpu.dcache.WriteReq.missLatency::cpu.data      6249999                       # number of WriteReq miss ticks (Tick)
system.cpu.dcache.WriteReq.missLatency::total      6249999                       # number of WriteReq miss ticks (Tick)
system.cpu.dcache.WriteReq.accesses::cpu.data        25903                       # number of WriteReq accesses(hits+misses) (Count)
system.cpu.dcache.WriteReq.accesses::total        25903                       # number of WriteReq accesses(hits+misses) (Count)
system.cpu.dcache.WriteReq.missRate::cpu.data     0.004131                       # miss rate for WriteReq accesses (Ratio)
system.cpu.dcache.WriteReq.missRate::total     0.004131                       # miss rate for WriteReq accesses (Ratio)
system.cpu.dcache.WriteReq.avgMissLatency::cpu.data 58411.205607                       # average WriteReq miss latency ((Tick/Count))
system.cpu.dcache.WriteReq.avgMissLatency::total 58411.205607                       # average WriteReq miss latency ((Tick/Count))
system.cpu.dcache.WriteReq.mshrHits::cpu.data            4                       # number of WriteReq MSHR hits (Count)
system.cpu.dcache.WriteReq.mshrHits::total            4                       # number of WriteReq MSHR hits (Count)
system.cpu.dcache.WriteReq.mshrMisses::cpu.data          103                       # number of WriteReq MSHR misses (Count)
system.cpu.dcache.WriteReq.mshrMisses::total          103                       # number of WriteReq MSHR misses (Count)
system.cpu.dcache.WriteReq.mshrMissLatency::cpu.data      5925000                       # number of WriteReq MSHR miss ticks (Tick)
system.cpu.dcache.WriteReq.mshrMissLatency::total      5925000                       # number of WriteReq MSHR miss ticks (Tick)
system.cpu.dcache.WriteReq.mshrMissRate::cpu.data     0.003976                       # mshr miss rate for WriteReq accesses (Ratio)
system.cpu.dcache.WriteReq.mshrMissRate::total     0.003976                       # mshr miss rate for WriteReq accesses (Ratio)
system.cpu.dcache.WriteReq.avgMshrMissLatency::cpu.data 57524.271845                       # average WriteReq mshr miss latency ((Tick/Count))
system.cpu.dcache.WriteReq.avgMshrMissLatency::total 57524.271845                       # average WriteReq mshr miss latency ((Tick/Count))
system.cpu.dcache.power_state.pwrStateResidencyTicks::UNDEFINED  29686378000                       # Cumulative time (in ticks) in various power states (Tick)
system.cpu.dcache.tags.tagsInUse          1022.821086                       # Average ticks per tags in use ((Tick/Count))
system.cpu.dcache.tags.totalRefs              3988229                       # Total number of references to valid blocks. (Count)
system.cpu.dcache.tags.sampledRefs            1440517                       # Sample count of references to valid blocks. (Count)
system.cpu.dcache.tags.avgRefs               2.768609                       # Average number of references to valid blocks. ((Count/Count))
system.cpu.dcache.tags.warmupTick              150000                       # The tick when the warmup percentage was hit. (Tick)
system.cpu.dcache.tags.occupancies::cpu.data  1022.821086                       # Average occupied blocks per tick, per requestor ((Count/Tick))
system.cpu.dcache.tags.avgOccs::cpu.data     0.998849                       # Average percentage of cache occupancy ((Ratio/Tick))
system.cpu.dcache.tags.avgOccs::total        0.998849                       # Average percentage of cache occupancy ((Ratio/Tick))
system.cpu.dcache.tags.occupanciesTaskId::1024         1024                       # Occupied blocks per task id (Count)
system.cpu.dcache.tags.ageTaskId_1024::0          342                       # Occupied blocks per task id, per block age (Count)
system.cpu.dcache.tags.ageTaskId_1024::1          681                       # Occupied blocks per task id, per block age (Count)
system.cpu.dcache.tags.ageTaskId_1024::2            1                       # Occupied blocks per task id, per block age (Count)
system.cpu.dcache.tags.ratioOccsTaskId::1024            1                       # Ratio of occupied blocks and all blocks, per task id (Ratio)
system.cpu.dcache.tags.tagAccesses           11341687                       # Number of tag accesses (Count)
system.cpu.dcache.tags.dataAccesses          11341687                       # Number of data accesses (Count)
system.cpu.dcache.tags.power_state.pwrStateResidencyTicks::UNDEFINED  29686378000                       # Cumulative time (in ticks) in various power states (Tick)
system.cpu.decode.idleCycles                   874207                       # Number of cycles decode is idle (Cycle)
system.cpu.decode.blockedCycles              25822208                       # Number of cycles decode is blocked (Cycle)
system.cpu.decode.runCycles                   1023035                       # Number of cycles decode is running (Cycle)
system.cpu.decode.unblockCycles               1932506                       # Number of cycles decode is unblocking (Cycle)
system.cpu.decode.squashCycles                  25243                       # Number of cycles decode is squashing (Cycle)
system.cpu.decode.branchResolved              1631971                       # Number of times decode resolved a branch (Count)
system.cpu.decode.branchMispred                   224                       # Number of times decode detected a branch misprediction (Count)
system.cpu.decode.decodedInsts               23331585                       # Number of instructions handled by decode (Count)
system.cpu.decode.squashedInsts                  1001                       # Number of squashed instructions handled by decode (Count)
system.cpu.dtb_walker_cache.blockedCycles::no_mshrs            0                       # number of cycles access was blocked (Cycle)
system.cpu.dtb_walker_cache.blockedCycles::no_targets            0                       # number of cycles access was blocked (Cycle)
system.cpu.dtb_walker_cache.blockedCauses::no_mshrs            0                       # number of times access was blocked (Count)
system.cpu.dtb_walker_cache.blockedCauses::no_targets            0                       # number of times access was blocked (Count)
system.cpu.dtb_walker_cache.avgBlocked::no_mshrs          nan                       # average number of cycles each access was blocked ((Cycle/Count))
system.cpu.dtb_walker_cache.avgBlocked::no_targets          nan                       # average number of cycles each access was blocked ((Cycle/Count))
system.cpu.dtb_walker_cache.replacements            0                       # number of replacements (Count)
system.cpu.dtb_walker_cache.power_state.pwrStateResidencyTicks::UNDEFINED  29686378000                       # Cumulative time (in ticks) in various power states (Tick)
system.cpu.dtb_walker_cache.tags.tagsInUse            0                       # Average ticks per tags in use ((Tick/Count))
system.cpu.dtb_walker_cache.tags.totalRefs            0                       # Total number of references to valid blocks. (Count)
system.cpu.dtb_walker_cache.tags.sampledRefs            0                       # Sample count of references to valid blocks. (Count)
system.cpu.dtb_walker_cache.tags.avgRefs          nan                       # Average number of references to valid blocks. ((Count/Count))
system.cpu.dtb_walker_cache.tags.warmupTick            0                       # The tick when the warmup percentage was hit. (Tick)
system.cpu.dtb_walker_cache.tags.tagAccesses            0                       # Number of tag accesses (Count)
system.cpu.dtb_walker_cache.tags.dataAccesses            0                       # Number of data accesses (Count)
system.cpu.dtb_walker_cache.tags.power_state.pwrStateResidencyTicks::UNDEFINED  29686378000                       # Cumulative time (in ticks) in various power states (Tick)
system.cpu.fetch.icacheStallCycles              88205                       # Number of cycles fetch is stalled on an Icache miss (Cycle)
system.cpu.fetch.insts                       12281981                       # Number of instructions fetch has processed (Count)
system.cpu.fetch.branches                     1731115                       # Number of branches that fetch encountered (Count)
system.cpu.fetch.predictedBranches            1703799                       # Number of branches that fetch has predicted taken (Count)
system.cpu.fetch.cycles                      29563247                       # Number of cycles fetch has run and was not squashing or blocked (Cycle)
system.cpu.fetch.squashCycles                   50928                       # Number of cycles fetch has spent squashing (Cycle)
system.cpu.fetch.miscStallCycles                   49                       # Number of cycles fetch has spent waiting on interrupts, or bad addresses, or out of MSHRs (Cycle)
system.cpu.fetch.pendingTrapStallCycles           234                       # Number of stall cycles due to pending traps (Cycle)
system.cpu.fetch.cacheLines                     78286                       # Number of cache lines fetched (Count)
system.cpu.fetch.icacheSquashes                   369                       # Number of outstanding Icache misses that were squashed (Count)
system.cpu.fetch.nisnDist::samples           29677199                       # Number of instructions fetched each cycle (Total) (Count)
system.cpu.fetch.nisnDist::mean              0.819904                       # Number of instructions fetched each cycle (Total) (Count)
system.cpu.fetch.nisnDist::stdev             2.211363                       # Number of instructions fetched each cycle (Total) (Count)
system.cpu.fetch.nisnDist::underflows               0      0.00%      0.00% # Number of instructions fetched each cycle (Total) (Count)
system.cpu.fetch.nisnDist::0                 25646623     86.42%     86.42% # Number of instructions fetched each cycle (Total) (Count)
system.cpu.fetch.nisnDist::1                    26779      0.09%     86.51% # Number of instructions fetched each cycle (Total) (Count)
system.cpu.fetch.nisnDist::2                   486013      1.64%     88.15% # Number of instructions fetched each cycle (Total) (Count)
system.cpu.fetch.nisnDist::3                    76663      0.26%     88.40% # Number of instructions fetched each cycle (Total) (Count)
system.cpu.fetch.nisnDist::4                   512893      1.73%     90.13% # Number of instructions fetched each cycle (Total) (Count)
system.cpu.fetch.nisnDist::5                    27469      0.09%     90.23% # Number of instructions fetched each cycle (Total) (Count)
system.cpu.fetch.nisnDist::6                  1121475      3.78%     94.00% # Number of instructions fetched each cycle (Total) (Count)
system.cpu.fetch.nisnDist::7                    48367      0.16%     94.17% # Number of instructions fetched each cycle (Total) (Count)
system.cpu.fetch.nisnDist::8                  1730917      5.83%    100.00% # Number of instructions fetched each cycle (Total) (Count)
system.cpu.fetch.nisnDist::overflows                0      0.00%    100.00% # Number of instructions fetched each cycle (Total) (Count)
system.cpu.fetch.nisnDist::min_value                0                       # Number of instructions fetched each cycle (Total) (Count)
system.cpu.fetch.nisnDist::max_value                8                       # Number of instructions fetched each cycle (Total) (Count)
system.cpu.fetch.nisnDist::total             29677199                       # Number of instructions fetched each cycle (Total) (Count)
system.cpu.fetch.branchRate                  0.058313                       # Number of branch fetches per cycle (Ratio)
system.cpu.fetch.rate                        0.413724                       # Number of inst fetches per cycle ((Count/Cycle))
system.cpu.icache.demandHits::cpu.inst          77719                       # number of demand (read+write) hits (Count)
system.cpu.icache.demandHits::total             77719                       # number of demand (read+write) hits (Count)
system.cpu.icache.overallHits::cpu.inst         77719                       # number of overall hits (Count)
system.cpu.icache.overallHits::total            77719                       # number of overall hits (Count)
system.cpu.icache.demandMisses::cpu.inst          566                       # number of demand (read+write) misses (Count)
system.cpu.icache.demandMisses::total             566                       # number of demand (read+write) misses (Count)
system.cpu.icache.overallMisses::cpu.inst          566                       # number of overall misses (Count)
system.cpu.icache.overallMisses::total            566                       # number of overall misses (Count)
system.cpu.icache.demandMissLatency::cpu.inst     33587000                       # number of demand (read+write) miss ticks (Tick)
system.cpu.icache.demandMissLatency::total     33587000                       # number of demand (read+write) miss ticks (Tick)
system.cpu.icache.overallMissLatency::cpu.inst     33587000                       # number of overall miss ticks (Tick)
system.cpu.icache.overallMissLatency::total     33587000                       # number of overall miss ticks (Tick)
system.cpu.icache.demandAccesses::cpu.inst        78285                       # number of demand (read+write) accesses (Count)
system.cpu.icache.demandAccesses::total         78285                       # number of demand (read+write) accesses (Count)
system.cpu.icache.overallAccesses::cpu.inst        78285                       # number of overall (read+write) accesses (Count)
system.cpu.icache.overallAccesses::total        78285                       # number of overall (read+write) accesses (Count)
system.cpu.icache.demandMissRate::cpu.inst     0.007230                       # miss rate for demand accesses (Ratio)
system.cpu.icache.demandMissRate::total      0.007230                       # miss rate for demand accesses (Ratio)
system.cpu.icache.overallMissRate::cpu.inst     0.007230                       # miss rate for overall accesses (Ratio)
system.cpu.icache.overallMissRate::total     0.007230                       # miss rate for overall accesses (Ratio)
system.cpu.icache.demandAvgMissLatency::cpu.inst 59340.989399                       # average overall miss latency in ticks ((Tick/Count))
system.cpu.icache.demandAvgMissLatency::total 59340.989399                       # average overall miss latency in ticks ((Tick/Count))
system.cpu.icache.overallAvgMissLatency::cpu.inst 59340.989399                       # average overall miss latency ((Tick/Count))
system.cpu.icache.overallAvgMissLatency::total 59340.989399                       # average overall miss latency ((Tick/Count))
system.cpu.icache.blockedCycles::no_mshrs           70                       # number of cycles access was blocked (Cycle)
system.cpu.icache.blockedCycles::no_targets            0                       # number of cycles access was blocked (Cycle)
system.cpu.icache.blockedCauses::no_mshrs            3                       # number of times access was blocked (Count)
system.cpu.icache.blockedCauses::no_targets            0                       # number of times access was blocked (Count)
system.cpu.icache.avgBlocked::no_mshrs      23.333333                       # average number of cycles each access was blocked ((Cycle/Count))
system.cpu.icache.avgBlocked::no_targets          nan                       # average number of cycles each access was blocked ((Cycle/Count))
system.cpu.icache.writebacks::writebacks          197                       # number of writebacks (Count)
system.cpu.icache.writebacks::total               197                       # number of writebacks (Count)
system.cpu.icache.demandMshrHits::cpu.inst          122                       # number of demand (read+write) MSHR hits (Count)
system.cpu.icache.demandMshrHits::total           122                       # number of demand (read+write) MSHR hits (Count)
system.cpu.icache.overallMshrHits::cpu.inst          122                       # number of overall MSHR hits (Count)
system.cpu.icache.overallMshrHits::total          122                       # number of overall MSHR hits (Count)
system.cpu.icache.demandMshrMisses::cpu.inst          444                       # number of demand (read+write) MSHR misses (Count)
system.cpu.icache.demandMshrMisses::total          444                       # number of demand (read+write) MSHR misses (Count)
system.cpu.icache.overallMshrMisses::cpu.inst          444                       # number of overall MSHR misses (Count)
system.cpu.icache.overallMshrMisses::total          444                       # number of overall MSHR misses (Count)
system.cpu.icache.demandMshrMissLatency::cpu.inst     27279000                       # number of demand (read+write) MSHR miss ticks (Tick)
system.cpu.icache.demandMshrMissLatency::total     27279000                       # number of demand (read+write) MSHR miss ticks (Tick)
system.cpu.icache.overallMshrMissLatency::cpu.inst     27279000                       # number of overall MSHR miss ticks (Tick)
system.cpu.icache.overallMshrMissLatency::total     27279000                       # number of overall MSHR miss ticks (Tick)
system.cpu.icache.demandMshrMissRate::cpu.inst     0.005672                       # mshr miss ratio for demand accesses (Ratio)
system.cpu.icache.demandMshrMissRate::total     0.005672                       # mshr miss ratio for demand accesses (Ratio)
system.cpu.icache.overallMshrMissRate::cpu.inst     0.005672                       # mshr miss ratio for overall accesses (Ratio)
system.cpu.icache.overallMshrMissRate::total     0.005672                       # mshr miss ratio for overall accesses (Ratio)
system.cpu.icache.demandAvgMshrMissLatency::cpu.inst 61439.189189                       # average overall mshr miss latency ((Tick/Count))
system.cpu.icache.demandAvgMshrMissLatency::total 61439.189189                       # average overall mshr miss latency ((Tick/Count))
system.cpu.icache.overallAvgMshrMissLatency::cpu.inst 61439.189189                       # average overall mshr miss latency ((Tick/Count))
system.cpu.icache.overallAvgMshrMissLatency::total 61439.189189                       # average overall mshr miss latency ((Tick/Count))
system.cpu.icache.replacements                    197                       # number of replacements (Count)
system.cpu.icache.ReadReq.hits::cpu.inst        77719                       # number of ReadReq hits (Count)
system.cpu.icache.ReadReq.hits::total           77719                       # number of ReadReq hits (Count)
system.cpu.icache.ReadReq.misses::cpu.inst          566                       # number of ReadReq misses (Count)
system.cpu.icache.ReadReq.misses::total           566                       # number of ReadReq misses (Count)
system.cpu.icache.ReadReq.missLatency::cpu.inst     33587000                       # number of ReadReq miss ticks (Tick)
system.cpu.icache.ReadReq.missLatency::total     33587000                       # number of ReadReq miss ticks (Tick)
system.cpu.icache.ReadReq.accesses::cpu.inst        78285                       # number of ReadReq accesses(hits+misses) (Count)
system.cpu.icache.ReadReq.accesses::total        78285                       # number of ReadReq accesses(hits+misses) (Count)
system.cpu.icache.ReadReq.missRate::cpu.inst     0.007230                       # miss rate for ReadReq accesses (Ratio)
system.cpu.icache.ReadReq.missRate::total     0.007230                       # miss rate for ReadReq accesses (Ratio)
system.cpu.icache.ReadReq.avgMissLatency::cpu.inst 59340.989399                       # average ReadReq miss latency ((Tick/Count))
system.cpu.icache.ReadReq.avgMissLatency::total 59340.989399                       # average ReadReq miss latency ((Tick/Count))
system.cpu.icache.ReadReq.mshrHits::cpu.inst          122                       # number of ReadReq MSHR hits (Count)
system.cpu.icache.ReadReq.mshrHits::total          122                       # number of ReadReq MSHR hits (Count)
system.cpu.icache.ReadReq.mshrMisses::cpu.inst          444                       # number of ReadReq MSHR misses (Count)
system.cpu.icache.ReadReq.mshrMisses::total          444                       # number of ReadReq MSHR misses (Count)
system.cpu.icache.ReadReq.mshrMissLatency::cpu.inst     27279000                       # number of ReadReq MSHR miss ticks (Tick)
system.cpu.icache.ReadReq.mshrMissLatency::total     27279000                       # number of ReadReq MSHR miss ticks (Tick)
system.cpu.icache.ReadReq.mshrMissRate::cpu.inst     0.005672                       # mshr miss rate for ReadReq accesses (Ratio)
system.cpu.icache.ReadReq.mshrMissRate::total     0.005672                       # mshr miss rate for ReadReq accesses (Ratio)
system.cpu.icache.ReadReq.avgMshrMissLatency::cpu.inst 61439.189189                       # average ReadReq mshr miss latency ((Tick/Count))
system.cpu.icache.ReadReq.avgMshrMissLatency::total 61439.189189                       # average ReadReq mshr miss latency ((Tick/Count))
system.cpu.icache.power_state.pwrStateResidencyTicks::UNDEFINED  29686378000                       # Cumulative time (in ticks) in various power states (Tick)
system.cpu.icache.tags.tagsInUse           239.913597                       # Average ticks per tags in use ((Tick/Count))
system.cpu.icache.tags.totalRefs                78162                       # Total number of references to valid blocks. (Count)
system.cpu.icache.tags.sampledRefs                443                       # Sample count of references to valid blocks. (Count)
system.cpu.icache.tags.avgRefs             176.437923                       # Average number of references to valid blocks. ((Count/Count))
system.cpu.icache.tags.warmupTick               77000                       # The tick when the warmup percentage was hit. (Tick)
system.cpu.icache.tags.occupancies::cpu.inst   239.913597                       # Average occupied blocks per tick, per requestor ((Count/Tick))
system.cpu.icache.tags.avgOccs::cpu.inst     0.937162                       # Average percentage of cache occupancy ((Ratio/Tick))
system.cpu.icache.tags.avgOccs::total        0.937162                       # Average percentage of cache occupancy ((Ratio/Tick))
system.cpu.icache.tags.occupanciesTaskId::1024          246                       # Occupied blocks per task id (Count)
system.cpu.icache.tags.ageTaskId_1024::0           39                       # Occupied blocks per task id, per block age (Count)
system.cpu.icache.tags.ageTaskId_1024::4          207                       # Occupied blocks per task id, per block age (Count)
system.cpu.icache.tags.ratioOccsTaskId::1024     0.960938                       # Ratio of occupied blocks and all blocks, per task id (Ratio)
system.cpu.icache.tags.tagAccesses             157013                       # Number of tag accesses (Count)
system.cpu.icache.tags.dataAccesses            157013                       # Number of data accesses (Count)
system.cpu.icache.tags.power_state.pwrStateResidencyTicks::UNDEFINED  29686378000                       # Cumulative time (in ticks) in various power states (Tick)
system.cpu.iew.idleCycles                           0                       # Number of cycles IEW is idle (Cycle)
system.cpu.iew.squashCycles                     25243                       # Number of cycles IEW is squashing (Cycle)
system.cpu.iew.blockCycles                     596338                       # Number of cycles IEW is blocking (Cycle)
system.cpu.iew.unblockCycles                  2888776                       # Number of cycles IEW is unblocking (Cycle)
system.cpu.iew.dispatchedInsts               23051147                       # Number of instructions dispatched to IQ (Count)
system.cpu.iew.dispSquashedInsts                14964                       # Number of squashed instructions skipped by dispatch (Count)
system.cpu.iew.dispLoadInsts                  4876884                       # Number of dispatched load instructions (Count)
system.cpu.iew.dispStoreInsts                   26881                       # Number of dispatched store instructions (Count)
system.cpu.iew.dispNonSpecInsts                    26                       # Number of dispatched non-speculative instructions (Count)
system.cpu.iew.iqFullEvents                     19249                       # Number of times the IQ has become full, causing a stall (Count)
system.cpu.iew.lsqFullEvents                  2840137                       # Number of times the LSQ has become full, causing a stall (Count)
system.cpu.iew.memOrderViolationEvents              9                       # Number of memory order violations (Count)
system.cpu.iew.predictedTakenIncorrect          24005                       # Number of branches that were predicted taken incorrectly (Count)
system.cpu.iew.predictedNotTakenIncorrect         1327                       # Number of branches that were predicted not taken incorrectly (Count)
system.cpu.iew.branchMispredicts                25332                       # Number of branch mispredicts detected at execute (Count)
system.cpu.iew.instsToCommit                 22891111                       # Cumulative count of insts sent to commit (Count)
system.cpu.iew.writebackCount                22889831                       # Cumulative count of insts written-back (Count)
system.cpu.iew.producerInst                  17498159                       # Number of instructions producing a value (Count)
system.cpu.iew.consumerInst                  23840527                       # Number of instructions consuming a value (Count)
system.cpu.iew.wbRate                        0.771055                       # Insts written-back per cycle ((Count/Cycle))
system.cpu.iew.wbFanout                      0.733967                       # Average fanout of values written-back ((Count/Count))
system.cpu.interrupts.clk_domain.clock          16000                       # Clock period in ticks (Tick)
system.cpu.itb_walker_cache.blockedCycles::no_mshrs            0                       # number of cycles access was blocked (Cycle)
system.cpu.itb_walker_cache.blockedCycles::no_targets            0                       # number of cycles access was blocked (Cycle)
system.cpu.itb_walker_cache.blockedCauses::no_mshrs            0                       # number of times access was blocked (Count)
system.cpu.itb_walker_cache.blockedCauses::no_targets            0                       # number of times access was blocked (Count)
system.cpu.itb_walker_cache.avgBlocked::no_mshrs          nan                       # average number of cycles each access was blocked ((Cycle/Count))
system.cpu.itb_walker_cache.avgBlocked::no_targets          nan                       # average number of cycles each access was blocked ((Cycle/Count))
system.cpu.itb_walker_cache.replacements            0                       # number of replacements (Count)
system.cpu.itb_walker_cache.power_state.pwrStateResidencyTicks::UNDEFINED  29686378000                       # Cumulative time (in ticks) in various power states (Tick)
system.cpu.itb_walker_cache.tags.tagsInUse            0                       # Average ticks per tags in use ((Tick/Count))
system.cpu.itb_walker_cache.tags.totalRefs            0                       # Total number of references to valid blocks. (Count)
system.cpu.itb_walker_cache.tags.sampledRefs            0                       # Sample count of references to valid blocks. (Count)
system.cpu.itb_walker_cache.tags.avgRefs          nan                       # Average number of references to valid blocks. ((Count/Count))
system.cpu.itb_walker_cache.tags.warmupTick            0                       # The tick when the warmup percentage was hit. (Tick)
system.cpu.itb_walker_cache.tags.tagAccesses            0                       # Number of tag accesses (Count)
system.cpu.itb_walker_cache.tags.dataAccesses            0                       # Number of data accesses (Count)
system.cpu.itb_walker_cache.tags.power_state.pwrStateResidencyTicks::UNDEFINED  29686378000                       # Cumulative time (in ticks) in various power states (Tick)
system.cpu.lsq0.forwLoads                          95                       # Number of loads that had data forwarded from stores (Count)
system.cpu.lsq0.squashedLoads                   60704                       # Number of loads squashed (Count)
system.cpu.lsq0.ignoredResponses                    3                       # Number of memory responses ignored because the instruction is squashed (Count)
system.cpu.lsq0.memOrderViolation                   9                       # Number of memory ordering violations (Count)
system.cpu.lsq0.squashedStores                    979                       # Number of stores squashed (Count)
system.cpu.lsq0.rescheduledLoads                    0                       # Number of loads that were rescheduled (Count)
system.cpu.lsq0.blockedByCache                1160736                       # Number of times an access to memory failed due to the cache being blocked (Count)
system.cpu.lsq0.loadToUse::samples            4816180                       # Distribution of cycle latency between the first time a load is issued and its completion (Unspecified)
system.cpu.lsq0.loadToUse::mean             80.986391                       # Distribution of cycle latency between the first time a load is issued and its completion (Unspecified)
system.cpu.lsq0.loadToUse::stdev            58.690177                       # Distribution of cycle latency between the first time a load is issued and its completion (Unspecified)
system.cpu.lsq0.loadToUse::0-9                 711708     14.78%     14.78% # Distribution of cycle latency between the first time a load is issued and its completion (Unspecified)
system.cpu.lsq0.loadToUse::10-19               137207      2.85%     17.63% # Distribution of cycle latency between the first time a load is issued and its completion (Unspecified)
system.cpu.lsq0.loadToUse::20-29                92884      1.93%     19.55% # Distribution of cycle latency between the first time a load is issued and its completion (Unspecified)
system.cpu.lsq0.loadToUse::30-39               207574      4.31%     23.86% # Distribution of cycle latency between the first time a load is issued and its completion (Unspecified)
system.cpu.lsq0.loadToUse::40-49               284060      5.90%     29.76% # Distribution of cycle latency between the first time a load is issued and its completion (Unspecified)
system.cpu.lsq0.loadToUse::50-59               323483      6.72%     36.48% # Distribution of cycle latency between the first time a load is issued and its completion (Unspecified)
system.cpu.lsq0.loadToUse::60-69               230781      4.79%     41.27% # Distribution of cycle latency between the first time a load is issued and its completion (Unspecified)
system.cpu.lsq0.loadToUse::70-79               387277      8.04%     49.31% # Distribution of cycle latency between the first time a load is issued and its completion (Unspecified)
system.cpu.lsq0.loadToUse::80-89               697235     14.48%     63.79% # Distribution of cycle latency between the first time a load is issued and its completion (Unspecified)
[...]
system.mem_ctrls.dram.bwWrite::total          4020699                       # Write bandwidth from this memory ((Byte/Second))
system.mem_ctrls.dram.bwTotal::writebacks      4020699                       # Total bandwidth to/from this memory ((Byte/Second))
system.mem_ctrls.dram.bwTotal::cpu.inst        950739                       # Total bandwidth to/from this memory ((Byte/Second))
system.mem_ctrls.dram.bwTotal::cpu.data    3105568756                       # Total bandwidth to/from this memory ((Byte/Second))
system.mem_ctrls.dram.bwTotal::total       3110540195                       # Total bandwidth to/from this memory ((Byte/Second))
system.mem_ctrls.dram.readBursts              1440746                       # Number of DRAM read bursts (Count)
system.mem_ctrls.dram.writeBursts                1836                       # Number of DRAM write bursts (Count)
system.mem_ctrls.dram.perBankRdBursts::0        90793                       # Per bank write bursts (Count)
system.mem_ctrls.dram.perBankRdBursts::1        90757                       # Per bank write bursts (Count)
system.mem_ctrls.dram.perBankRdBursts::2        89765                       # Per bank write bursts (Count)
system.mem_ctrls.dram.perBankRdBursts::3        89796                       # Per bank write bursts (Count)
system.mem_ctrls.dram.perBankRdBursts::4        90301                       # Per bank write bursts (Count)
system.mem_ctrls.dram.perBankRdBursts::5        90113                       # Per bank write bursts (Count)
system.mem_ctrls.dram.perBankRdBursts::6        89093                       # Per bank write bursts (Count)
system.mem_ctrls.dram.perBankRdBursts::7        90230                       # Per bank write bursts (Count)
system.mem_ctrls.dram.perBankRdBursts::8        90358                       # Per bank write bursts (Count)
system.mem_ctrls.dram.perBankRdBursts::9        89997                       # Per bank write bursts (Count)
system.mem_ctrls.dram.perBankRdBursts::10        90311                       # Per bank write bursts (Count)
system.mem_ctrls.dram.perBankRdBursts::11        89430                       # Per bank write bursts (Count)
system.mem_ctrls.dram.perBankRdBursts::12        89686                       # Per bank write bursts (Count)
system.mem_ctrls.dram.perBankRdBursts::13        90415                       # Per bank write bursts (Count)
system.mem_ctrls.dram.perBankRdBursts::14        89447                       # Per bank write bursts (Count)
system.mem_ctrls.dram.perBankRdBursts::15        90254                       # Per bank write bursts (Count)
system.mem_ctrls.dram.perBankWrBursts::0           26                       # Per bank write bursts (Count)
system.mem_ctrls.dram.perBankWrBursts::1           14                       # Per bank write bursts (Count)
system.mem_ctrls.dram.perBankWrBursts::2            3                       # Per bank write bursts (Count)
system.mem_ctrls.dram.perBankWrBursts::3           50                       # Per bank write bursts (Count)
system.mem_ctrls.dram.perBankWrBursts::4           20                       # Per bank write bursts (Count)
system.mem_ctrls.dram.perBankWrBursts::5          181                       # Per bank write bursts (Count)
system.mem_ctrls.dram.perBankWrBursts::6          214                       # Per bank write bursts (Count)
system.mem_ctrls.dram.perBankWrBursts::7          237                       # Per bank write bursts (Count)
system.mem_ctrls.dram.perBankWrBursts::8          384                       # Per bank write bursts (Count)
system.mem_ctrls.dram.perBankWrBursts::9          392                       # Per bank write bursts (Count)
system.mem_ctrls.dram.perBankWrBursts::10          234                       # Per bank write bursts (Count)
system.mem_ctrls.dram.perBankWrBursts::11            0                       # Per bank write bursts (Count)
system.mem_ctrls.dram.perBankWrBursts::12           17                       # Per bank write bursts (Count)
system.mem_ctrls.dram.perBankWrBursts::13           12                       # Per bank write bursts (Count)
system.mem_ctrls.dram.perBankWrBursts::14           36                       # Per bank write bursts (Count)
system.mem_ctrls.dram.perBankWrBursts::15           16                       # Per bank write bursts (Count)
system.mem_ctrls.dram.totQLat             31328492750                       # Total ticks spent queuing (Tick)
system.mem_ctrls.dram.totBusLat            7203730000                       # Total ticks spent in databus transfers (Tick)
system.mem_ctrls.dram.totMemAccLat        58342480250                       # Total ticks spent from burst creation until serviced by the DRAM (Tick)
system.mem_ctrls.dram.avgQLat                21744.63                       # Average queueing delay per DRAM burst ((Tick/Count))
system.mem_ctrls.dram.avgBusLat               5000.00                       # Average bus latency per DRAM burst ((Tick/Count))
system.mem_ctrls.dram.avgMemAccLat           40494.63                       # Average memory access latency per DRAM burst ((Tick/Count))
system.mem_ctrls.dram.readRowHits              835361                       # Number of row buffer hits during reads (Count)
system.mem_ctrls.dram.writeRowHits               1665                       # Number of row buffer hits during writes (Count)
system.mem_ctrls.dram.readRowHitRate            57.98                       # Row buffer hit rate for reads (Ratio)
system.mem_ctrls.dram.writeRowHitRate           90.69                       # Row buffer hit rate for writes (Ratio)
system.mem_ctrls.dram.bytesPerActivate::samples       605540                       # Bytes accessed per row activation (Byte)
system.mem_ctrls.dram.bytesPerActivate::mean   152.461393                       # Bytes accessed per row activation (Byte)
system.mem_ctrls.dram.bytesPerActivate::gmean   128.008218                       # Bytes accessed per row activation (Byte)
system.mem_ctrls.dram.bytesPerActivate::stdev    95.807753                       # Bytes accessed per row activation (Byte)
system.mem_ctrls.dram.bytesPerActivate::0-127       206939     34.17%     34.17% # Bytes accessed per row activation (Byte)
system.mem_ctrls.dram.bytesPerActivate::128-255       285396     47.13%     81.31% # Bytes accessed per row activation (Byte)
system.mem_ctrls.dram.bytesPerActivate::256-383        88490     14.61%     95.92% # Bytes accessed per row activation (Byte)
system.mem_ctrls.dram.bytesPerActivate::384-511        19561      3.23%     99.15% # Bytes accessed per row activation (Byte)
system.mem_ctrls.dram.bytesPerActivate::512-639         4073      0.67%     99.82% # Bytes accessed per row activation (Byte)
system.mem_ctrls.dram.bytesPerActivate::640-767          758      0.13%     99.95% # Bytes accessed per row activation (Byte)
system.mem_ctrls.dram.bytesPerActivate::768-895          181      0.03%     99.98% # Bytes accessed per row activation (Byte)
system.mem_ctrls.dram.bytesPerActivate::896-1023           41      0.01%     99.98% # Bytes accessed per row activation (Byte)
system.mem_ctrls.dram.bytesPerActivate::1024-1151          101      0.02%    100.00% # Bytes accessed per row activation (Byte)
system.mem_ctrls.dram.bytesPerActivate::total       605540                       # Bytes accessed per row activation (Byte)
system.mem_ctrls.dram.bytesRead              92207744                       # Total bytes read (Byte)
system.mem_ctrls.dram.bytesWritten             117504                       # Total bytes written (Byte)
system.mem_ctrls.dram.avgRdBW             3106.062451                       # Average DRAM read bandwidth in MiBytes/s ((Byte/Second))
system.mem_ctrls.dram.avgWrBW                3.958179                       # Average DRAM write bandwidth in MiBytes/s ((Byte/Second))
system.mem_ctrls.dram.peakBW                 12800.00                       # Theoretical peak bandwidth in MiByte/s ((Byte/Second))
system.mem_ctrls.dram.busUtil                   24.30                       # Data bus utilization in percentage (Ratio)
system.mem_ctrls.dram.busUtilRead               24.27                       # Data bus utilization in percentage for reads (Ratio)
system.mem_ctrls.dram.busUtilWrite               0.03                       # Data bus utilization in percentage for writes (Ratio)
system.mem_ctrls.dram.pageHitRate               58.02                       # Row buffer hit rate, read and write combined (Ratio)
system.mem_ctrls.dram.power_state.pwrStateResidencyTicks::UNDEFINED  29686378000                       # Cumulative time (in ticks) in various power states (Tick)
system.mem_ctrls.dram.rank0.actEnergy      2133546240                       # Energy for activate commands per rank (pJ) (Joule)
system.mem_ctrls.dram.rank0.preEnergy      1133976360                       # Energy for precharge commands per rank (pJ) (Joule)
system.mem_ctrls.dram.rank0.readEnergy     5146854720                       # Energy for read commands per rank (pJ) (Joule)
system.mem_ctrls.dram.rank0.writeEnergy       3862800                       # Energy for write commands per rank (pJ) (Joule)
system.mem_ctrls.dram.rank0.refreshEnergy 2343007680.000000                       # Energy for refresh commands per rank (pJ) (Joule)
system.mem_ctrls.dram.rank0.actBackEnergy  13390597890                       # Energy for active background per rank (pJ) (Joule)
system.mem_ctrls.dram.rank0.preBackEnergy    123276480                       # Energy for precharge background per rank (pJ) (Joule)
system.mem_ctrls.dram.rank0.actPowerDownEnergy            0                       # Energy for active power-down per rank (pJ) (Joule)
system.mem_ctrls.dram.rank0.prePowerDownEnergy            0                       # Energy for precharge power-down per rank (pJ) (Joule)
system.mem_ctrls.dram.rank0.selfRefreshEnergy            0                       # Energy for self refresh per rank (pJ) (Joule)
system.mem_ctrls.dram.rank0.totalEnergy   24275122170                       # Total energy per rank (pJ) (Joule)
system.mem_ctrls.dram.rank0.averagePower   817.719230                       # Core power per rank (mW) (Watt)
system.mem_ctrls.dram.rank0.totalIdleTime            0                       # Total Idle time Per DRAM Rank (Tick)
system.mem_ctrls.dram.rank0.pwrStateTime::IDLE    212900250                       # Time in different power states (Tick)
system.mem_ctrls.dram.rank0.pwrStateTime::REF    991120000                       # Time in different power states (Tick)
system.mem_ctrls.dram.rank0.pwrStateTime::SREF            0                       # Time in different power states (Tick)
system.mem_ctrls.dram.rank0.pwrStateTime::PRE_PDN            0                       # Time in different power states (Tick)
system.mem_ctrls.dram.rank0.pwrStateTime::ACT  28482357750                       # Time in different power states (Tick)
system.mem_ctrls.dram.rank0.pwrStateTime::ACT_PDN            0                       # Time in different power states (Tick)
system.mem_ctrls.dram.rank1.actEnergy      2190123600                       # Energy for activate commands per rank (pJ) (Joule)
system.mem_ctrls.dram.rank1.preEnergy      1164047940                       # Energy for precharge commands per rank (pJ) (Joule)
system.mem_ctrls.dram.rank1.readEnergy     5140071720                       # Energy for read commands per rank (pJ) (Joule)
system.mem_ctrls.dram.rank1.writeEnergy       5695020                       # Energy for write commands per rank (pJ) (Joule)
system.mem_ctrls.dram.rank1.refreshEnergy 2343007680.000000                       # Energy for refresh commands per rank (pJ) (Joule)
system.mem_ctrls.dram.rank1.actBackEnergy  13396081860                       # Energy for active background per rank (pJ) (Joule)
system.mem_ctrls.dram.rank1.preBackEnergy    118658400                       # Energy for precharge background per rank (pJ) (Joule)
system.mem_ctrls.dram.rank1.actPowerDownEnergy            0                       # Energy for active power-down per rank (pJ) (Joule)
system.mem_ctrls.dram.rank1.prePowerDownEnergy            0                       # Energy for precharge power-down per rank (pJ) (Joule)
system.mem_ctrls.dram.rank1.selfRefreshEnergy            0                       # Energy for self refresh per rank (pJ) (Joule)
system.mem_ctrls.dram.rank1.totalEnergy   24357686220                       # Total energy per rank (pJ) (Joule)
system.mem_ctrls.dram.rank1.averagePower   820.500440                       # Core power per rank (mW) (Watt)
system.mem_ctrls.dram.rank1.totalIdleTime            0                       # Total Idle time Per DRAM Rank (Tick)
system.mem_ctrls.dram.rank1.pwrStateTime::IDLE    201315250                       # Time in different power states (Tick)
system.mem_ctrls.dram.rank1.pwrStateTime::REF    991120000                       # Time in different power states (Tick)
system.mem_ctrls.dram.rank1.pwrStateTime::SREF            0                       # Time in different power states (Tick)
system.mem_ctrls.dram.rank1.pwrStateTime::PRE_PDN            0                       # Time in different power states (Tick)
system.mem_ctrls.dram.rank1.pwrStateTime::ACT  28493942750                       # Time in different power states (Tick)
system.mem_ctrls.dram.rank1.pwrStateTime::ACT_PDN            0                       # Time in different power states (Tick)
system.mem_ctrls.power_state.pwrStateResidencyTicks::UNDEFINED  29686378000                       # Cumulative time (in ticks) in various power states (Tick)
system.membus.transDist::ReadResp             1440857                       # Transaction distribution (Count)
system.membus.transDist::WritebackDirty          1865                       # Transaction distribution (Count)
system.membus.transDist::WritebackClean           197                       # Transaction distribution (Count)
system.membus.transDist::CleanEvict           1437628                       # Transaction distribution (Count)
system.membus.transDist::ReadExReq                103                       # Transaction distribution (Count)
system.membus.transDist::ReadExResp               103                       # Transaction distribution (Count)
system.membus.transDist::ReadCleanReq             444                       # Transaction distribution (Count)
system.membus.transDist::ReadSharedReq        1440414                       # Transaction distribution (Count)
system.membus.pktCount_system.cpu.icache.mem_side_port::system.mem_ctrls.port         1082                       # Packet count per connected requestor and responder (Count)
system.membus.pktCount_system.cpu.icache.mem_side_port::total         1082                       # Packet count per connected requestor and responder (Count)
system.membus.pktCount_system.cpu.dcache.mem_side_port::system.mem_ctrls.port      4320527                       # Packet count per connected requestor and responder (Count)
system.membus.pktCount_system.cpu.dcache.mem_side_port::total      4320527                       # Packet count per connected requestor and responder (Count)
system.membus.pktCount::total                 4321609                       # Packet count per connected requestor and responder (Count)
system.membus.pktSize_system.cpu.icache.mem_side_port::system.mem_ctrls.port        40832                       # Cumulative packet size per connected requestor and responder (Byte)
system.membus.pktSize_system.cpu.icache.mem_side_port::total        40832                       # Cumulative packet size per connected requestor and responder (Byte)
system.membus.pktSize_system.cpu.dcache.mem_side_port::system.mem_ctrls.port     92312448                       # Cumulative packet size per connected requestor and responder (Byte)
system.membus.pktSize_system.cpu.dcache.mem_side_port::total     92312448                       # Cumulative packet size per connected requestor and responder (Byte)
system.membus.pktSize::total                 92353280                       # Cumulative packet size per connected requestor and responder (Byte)
system.membus.snoops                                2                       # Total snoops (Count)
system.membus.snoopTraffic                        128                       # Total snoop traffic (Byte)
system.membus.snoopFanout::samples            1440961                       # Request fanout histogram (Count)
system.membus.snoopFanout::mean              0.000003                       # Request fanout histogram (Count)
system.membus.snoopFanout::stdev             0.001666                       # Request fanout histogram (Count)
system.membus.snoopFanout::underflows               0      0.00%      0.00% # Request fanout histogram (Count)
system.membus.snoopFanout::0                  1440957    100.00%    100.00% # Request fanout histogram (Count)
system.membus.snoopFanout::1                        4      0.00%    100.00% # Request fanout histogram (Count)
system.membus.snoopFanout::2                        0      0.00%    100.00% # Request fanout histogram (Count)
system.membus.snoopFanout::3                        0      0.00%    100.00% # Request fanout histogram (Count)
system.membus.snoopFanout::4                        0      0.00%    100.00% # Request fanout histogram (Count)
system.membus.snoopFanout::overflows                0      0.00%    100.00% # Request fanout histogram (Count)
system.membus.snoopFanout::min_value                0                       # Request fanout histogram (Count)
system.membus.snoopFanout::max_value                1                       # Request fanout histogram (Count)
system.membus.snoopFanout::total              1440961                       # Request fanout histogram (Count)
system.membus.power_state.pwrStateResidencyTicks::UNDEFINED  29686378000                       # Cumulative time (in ticks) in various power states (Tick)
system.membus.reqLayer2.occupancy          2888899000                       # Layer occupancy (ticks) (Tick)
system.membus.reqLayer2.utilization               0.1                       # Layer utilization (Ratio)
system.membus.respLayer1.occupancy            2354250                       # Layer occupancy (ticks) (Tick)
system.membus.respLayer1.utilization              0.0                       # Layer utilization (Ratio)
system.membus.respLayer2.occupancy         7675980000                       # Layer occupancy (ticks) (Tick)
system.membus.respLayer2.utilization              0.3                       # Layer utilization (Ratio)
system.membus.snoop_filter.totRequests        2880651                       # Total number of requests made to the snoop filter. (Count)
system.membus.snoop_filter.hitSingleRequests      1439690                       # Number of requests hitting in the snoop filter with a single holder of the requested data. (Count)
system.membus.snoop_filter.hitMultiRequests            4                       # Number of requests hitting in the snoop filter with multiple (>1) holders of the requested data. (Count)
system.membus.snoop_filter.totSnoops                0                       # Total number of snoops made to the snoop filter. (Count)
system.membus.snoop_filter.hitSingleSnoops            0                       # Number of snoops hitting in the snoop filter with a single holder of the requested data. (Count)
system.membus.snoop_filter.hitMultiSnoops            0                       # Number of snoops hitting in the snoop filter with multiple (>1) holders of the requested data. (Count)
system.voltage_domain.voltage                       1                       # Voltage in Volts (Volt)
system.workload.inst.arm                            0                       # number of arm instructions executed (Count)
system.workload.inst.quiesce                        0                       # number of quiesce instructions executed (Count)

---------- End Simulation Statistics   ----------
