
---------- Begin Simulation Statistics ----------
simSeconds                                   0.000038                       # Number of seconds simulated (Second)
simTicks                                     38095500                       # Number of ticks simulated (Tick)
finalTick                                    38095500                       # Number of ticks from beginning of simulation (restored from checkpoints and never reset) (Tick)
simFreq                                  1000000000000                       # The number of ticks per simulated second ((Tick/Second))
hostSeconds                                      0.21                       # Real time elapsed on the host (Second)
hostTickRate                                184656846                       # The number of ticks simulated per host second (ticks/s) ((Tick/Second))
hostMemory                                     678284                       # Number of bytes of host memory used (Byte)
simInsts                                        19676                       # Number of instructions simulated (Count)
simOps                                          39141                       # Number of ops (including micro ops) simulated (Count)
hostInstRate                                    95283                       # Simulator instruction rate (inst/s) ((Count/Second))
hostOpRate                                     189518                       # Simulator op (including micro ops) rate (op/s) ((Count/Second))
system.clk_domain.clock                           250                       # Clock period in ticks (Tick)
system.cpu.numCycles                           152383                       # Number of cpu cycles simulated (Cycle)
system.cpu.numWorkItemsStarted                      0                       # Number of work items this cpu started (Count)
system.cpu.numWorkItemsCompleted                    0                       # Number of work items this cpu completed (Count)
system.cpu.instsAdded                           70704                       # Number of instructions added to the IQ (excludes non-spec) (Count)
system.cpu.nonSpecInstsAdded                        1                       # Number of non-speculative instructions added to the IQ (Count)
system.cpu.instsIssued                          61789                       # Number of instructions issued (Count)
system.cpu.squashedInstsIssued                    169                       # Number of squashed instructions issued (Count)
system.cpu.squashedInstsExamined                31558                       # Number of squashed instructions iterated over during squash; mainly for profiling (Count)
system.cpu.squashedOperandsExamined             41690                       # Number of squashed operands that are examined and possibly removed from graph (Count)
system.cpu.squashedNonSpecRemoved                   1                       # Number of squashed non-spec instructions that were removed (Count)
system.cpu.numIssuedDist::samples               89252                       # Number of insts issued each cycle (Count)
system.cpu.numIssuedDist::mean               0.692298                       # Number of insts issued each cycle (Count)
system.cpu.numIssuedDist::stdev              1.652716                       # Number of insts issued each cycle (Count)
system.cpu.numIssuedDist::underflows                0      0.00%      0.00% # Number of insts issued each cycle (Count)
system.cpu.numIssuedDist::0                     71346     79.94%     79.94% # Number of insts issued each cycle (Count)
system.cpu.numIssuedDist::1                      4044      4.53%     84.47% # Number of insts issued each cycle (Count)
system.cpu.numIssuedDist::2                      3051      3.42%     87.89% # Number of insts issued each cycle (Count)
system.cpu.numIssuedDist::3                      2714      3.04%     90.93% # Number of insts issued each cycle (Count)
system.cpu.numIssuedDist::4                      2499      2.80%     93.73% # Number of insts issued each cycle (Count)
system.cpu.numIssuedDist::5                      2146      2.40%     96.13% # Number of insts issued each cycle (Count)
system.cpu.numIssuedDist::6                      1971      2.21%     98.34% # Number of insts issued each cycle (Count)
system.cpu.numIssuedDist::7                       899      1.01%     99.35% # Number of insts issued each cycle (Count)
system.cpu.numIssuedDist::8                       582      0.65%    100.00% # Number of insts issued each cycle (Count)
system.cpu.numIssuedDist::overflows                 0      0.00%    100.00% # Number of insts issued each cycle (Count)
system.cpu.numIssuedDist::min_value                 0                       # Number of insts issued each cycle (Count)
system.cpu.numIssuedDist::max_value                 8                       # Number of insts issued each cycle (Count)
system.cpu.numIssuedDist::total                 89252                       # Number of insts issued each cycle (Count)
system.cpu.statFuBusy::No_OpClass                   0      0.00%      0.00% # attempts to use FU when none available (Count)
system.cpu.statFuBusy::IntAlu                     696     77.25%     77.25% # attempts to use FU when none available (Count)
system.cpu.statFuBusy::IntMult                      0      0.00%     77.25% # attempts to use FU when none available (Count)
system.cpu.statFuBusy::IntDiv                       0      0.00%     77.25% # attempts to use FU when none available (Count)
system.cpu.statFuBusy::FloatAdd                     0      0.00%     77.25% # attempts to use FU when none available (Count)
system.cpu.statFuBusy::FloatCmp                     0      0.00%     77.25% # attempts to use FU when none available (Count)
system.cpu.statFuBusy::FloatCvt                     0      0.00%     77.25% # attempts to use FU when none available (Count)
system.cpu.statFuBusy::FloatMult                    0      0.00%     77.25% # attempts to use FU when none available (Count)
system.cpu.statFuBusy::FloatMultAcc                 0      0.00%     77.25% # attempts to use FU when none available (Count)
system.cpu.statFuBusy::FloatDiv                     0      0.00%     77.25% # attempts to use FU when none available (Count)
system.cpu.statFuBusy::FloatMisc                    0      0.00%     77.25% # attempts to use FU when none available (Count)
system.cpu.statFuBusy::FloatSqrt                    0      0.00%     77.25% # attempts to use FU when none available (Count)
system.cpu.statFuBusy::SimdAdd                      0      0.00%     77.25% # attempts to use FU when none available (Count)
system.cpu.statFuBusy::SimdAddAcc                   0      0.00%     77.25% # attempts to use FU when none available (Count)
system.cpu.statFuBusy::SimdAlu                     16      1.78%     79.02% # attempts to use FU when none available (Count)
system.cpu.statFuBusy::SimdCmp                      0      0.00%     79.02% # attempts to use FU when none available (Count)
system.cpu.statFuBusy::SimdCvt                      7      0.78%     79.80% # attempts to use FU when none available (Count)
system.cpu.statFuBusy::SimdMisc                     2      0.22%     80.02% # attempts to use FU when none available (Count)
system.cpu.statFuBusy::SimdMult                     0      0.00%     80.02% # attempts to use FU when none available (Count)
system.cpu.statFuBusy::SimdMultAcc                  0      0.00%     80.02% # attempts to use FU when none available (Count)
system.cpu.statFuBusy::SimdShift                    1      0.11%     80.13% # attempts to use FU when none available (Count)
system.cpu.statFuBusy::SimdShiftAcc                 0      0.00%     80.13% # attempts to use FU when none available (Count)
system.cpu.statFuBusy::SimdDiv                      0      0.00%     80.13% # attempts to use FU when none available (Count)
system.cpu.statFuBusy::SimdSqrt                     0      0.00%     80.13% # attempts to use FU when none available (Count)
system.cpu.statFuBusy::SimdFloatAdd                 0      0.00%     80.13% # attempts to use FU when none available (Count)
system.cpu.statFuBusy::SimdFloatAlu                 0      0.00%     80.13% # attempts to use FU when none available (Count)
system.cpu.statFuBusy::SimdFloatCmp                 0      0.00%     80.13% # attempts to use FU when none available (Count)
system.cpu.statFuBusy::SimdFloatCvt                 0      0.00%     80.13% # attempts to use FU when none available (Count)
system.cpu.statFuBusy::SimdFloatDiv                 0      0.00%     80.13% # attempts to use FU when none available (Count)
system.cpu.statFuBusy::SimdFloatMisc                0      0.00%     80.13% # attempts to use FU when none available (Count)
system.cpu.statFuBusy::SimdFloatMult                0      0.00%     80.13% # attempts to use FU when none available (Count)
system.cpu.statFuBusy::SimdFloatMultAcc             0      0.00%     80.13% # attempts to use FU when none available (Count)
system.cpu.statFuBusy::SimdFloatSqrt                0      0.00%     80.13% # attempts to use FU when none available (Count)
system.cpu.statFuBusy::SimdReduceAdd                0      0.00%     80.13% # attempts to use FU when none available (Count)
system.cpu.statFuBusy::SimdReduceAlu                0      0.00%     80.13% # attempts to use FU when none available (Count)
system.cpu.statFuBusy::SimdReduceCmp                0      0.00%     80.13% # attempts to use FU when none available (Count)
system.cpu.statFuBusy::SimdFloatReduceAdd            0      0.00%     80.13% # attempts to use FU when none available (Count)
system.cpu.statFuBusy::SimdFloatReduceCmp            0      0.00%     80.13% # attempts to use FU when none available (Count)
system.cpu.statFuBusy::SimdAes                      0      0.00%     80.13% # attempts to use FU when none available (Count)
system.cpu.statFuBusy::SimdAesMix                   0      0.00%     80.13% # attempts to use FU when none available (Count)
system.cpu.statFuBusy::SimdSha1Hash                 0      0.00%     80.13% # attempts to use FU when none available (Count)
system.cpu.statFuBusy::SimdSha1Hash2                0      0.00%     80.13% # attempts to use FU when none available (Count)
system.cpu.statFuBusy::SimdSha256Hash               0      0.00%     80.13% # attempts to use FU when none available (Count)
system.cpu.statFuBusy::SimdSha256Hash2              0      0.00%     80.13% # attempts to use FU when none available (Count)
system.cpu.statFuBusy::SimdShaSigma2                0      0.00%     80.13% # attempts to use FU when none available (Count)
system.cpu.statFuBusy::SimdShaSigma3                0      0.00%     80.13% # attempts to use FU when none available (Count)
system.cpu.statFuBusy::SimdPredAlu                  0      0.00%     80.13% # attempts to use FU when none available (Count)
system.cpu.statFuBusy::MemRead                    121     13.43%     93.56% # attempts to use FU when none available (Count)
system.cpu.statFuBusy::MemWrite                    28      3.11%     96.67% # attempts to use FU when none available (Count)
system.cpu.statFuBusy::FloatMemRead                11      1.22%     97.89% # attempts to use FU when none available (Count)
system.cpu.statFuBusy::FloatMemWrite               19      2.11%    100.00% # attempts to use FU when none available (Count)
system.cpu.statFuBusy::IprAccess                    0      0.00%    100.00% # attempts to use FU when none available (Count)
system.cpu.statFuBusy::InstPrefetch                 0      0.00%    100.00% # attempts to use FU when none available (Count)
system.cpu.statIssuedInstType_0::No_OpClass          917      1.48%      1.48% # Number of instructions issued per FU type, per thread (Count)
system.cpu.statIssuedInstType_0::IntAlu         46803     75.75%     77.23% # Number of instructions issued per FU type, per thread (Count)
system.cpu.statIssuedInstType_0::IntMult           18      0.03%     77.26% # Number of instructions issued per FU type, per thread (Count)
system.cpu.statIssuedInstType_0::IntDiv            46      0.07%     77.33% # Number of instructions issued per FU type, per thread (Count)
system.cpu.statIssuedInstType_0::FloatAdd          150      0.24%     77.58% # Number of instructions issued per FU type, per thread (Count)
system.cpu.statIssuedInstType_0::FloatCmp            0      0.00%     77.58% # Number of instructions issued per FU type, per thread (Count)
system.cpu.statIssuedInstType_0::FloatCvt            0      0.00%     77.58% # Number of instructions issued per FU type, per thread (Count)
system.cpu.statIssuedInstType_0::FloatMult            0      0.00%     77.58% # Number of instructions issued per FU type, per thread (Count)
system.cpu.statIssuedInstType_0::FloatMultAcc            0      0.00%     77.58% # Number of instructions issued per FU type, per thread (Count)
system.cpu.statIssuedInstType_0::FloatDiv            0      0.00%     77.58% # Number of instructions issued per FU type, per thread (Count)
system.cpu.statIssuedInstType_0::FloatMisc            0      0.00%     77.58% # Number of instructions issued per FU type, per thread (Count)
system.cpu.statIssuedInstType_0::FloatSqrt            0      0.00%     77.58% # Number of instructions issued per FU type, per thread (Count)
system.cpu.statIssuedInstType_0::SimdAdd          170      0.28%     77.85% # Number of instructions issued per FU type, per thread (Count)
system.cpu.statIssuedInstType_0::SimdAddAcc            0      0.00%     77.85% # Number of instructions issued per FU type, per thread (Count)
system.cpu.statIssuedInstType_0::SimdAlu          607      0.98%     78.83% # Number of instructions issued per FU type, per thread (Count)
system.cpu.statIssuedInstType_0::SimdCmp            0      0.00%     78.83% # Number of instructions issued per FU type, per thread (Count)
system.cpu.statIssuedInstType_0::SimdCvt          537      0.87%     79.70% # Number of instructions issued per FU type, per thread (Count)
system.cpu.statIssuedInstType_0::SimdMisc          545      0.88%     80.59% # Number of instructions issued per FU type, per thread (Count)
system.cpu.statIssuedInstType_0::SimdMult            0      0.00%     80.59% # Number of instructions issued per FU type, per thread (Count)
system.cpu.statIssuedInstType_0::SimdMultAcc            0      0.00%     80.59% # Number of instructions issued per FU type, per thread (Count)
system.cpu.statIssuedInstType_0::SimdShift          141      0.23%     80.81% # Number of instructions issued per FU type, per thread (Count)
system.cpu.statIssuedInstType_0::SimdShiftAcc            0      0.00%     80.81% # Number of instructions issued per FU type, per thread (Count)
system.cpu.statIssuedInstType_0::SimdDiv            0      0.00%     80.81% # Number of instructions issued per FU type, per thread (Count)
system.cpu.statIssuedInstType_0::SimdSqrt            0      0.00%     80.81% # Number of instructions issued per FU type, per thread (Count)
system.cpu.statIssuedInstType_0::SimdFloatAdd            0      0.00%     80.81% # Number of instructions issued per FU type, per thread (Count)
system.cpu.statIssuedInstType_0::SimdFloatAlu            0      0.00%     80.81% # Number of instructions issued per FU type, per thread (Count)
system.cpu.statIssuedInstType_0::SimdFloatCmp            0      0.00%     80.81% # Number of instructions issued per FU type, per thread (Count)
system.cpu.statIssuedInstType_0::SimdFloatCvt            0      0.00%     80.81% # Number of instructions issued per FU type, per thread (Count)
system.cpu.statIssuedInstType_0::SimdFloatDiv            0      0.00%     80.81% # Number of instructions issued per FU type, per thread (Count)
system.cpu.statIssuedInstType_0::SimdFloatMisc            0      0.00%     80.81% # Number of instructions issued per FU type, per thread (Count)
system.cpu.statIssuedInstType_0::SimdFloatMult            0      0.00%     80.81% # Number of instructions issued per FU type, per thread (Count)
system.cpu.statIssuedInstType_0::SimdFloatMultAcc            0      0.00%     80.81% # Number of instructions issued per FU type, per thread (Count)
system.cpu.statIssuedInstType_0::SimdFloatSqrt            0      0.00%     80.81% # Number of instructions issued per FU type, per thread (Count)
system.cpu.statIssuedInstType_0::SimdReduceAdd            0      0.00%     80.81% # Number of instructions issued per FU type, per thread (Count)
system.cpu.statIssuedInstType_0::SimdReduceAlu            0      0.00%     80.81% # Number of instructions issued per FU type, per thread (Count)
system.cpu.statIssuedInstType_0::SimdReduceCmp            0      0.00%     80.81% # Number of instructions issued per FU type, per thread (Count)
system.cpu.statIssuedInstType_0::SimdFloatReduceAdd            0      0.00%     80.81% # Number of instructions issued per FU type, per thread (Count)
system.cpu.statIssuedInstType_0::SimdFloatReduceCmp            0      0.00%     80.81% # Number of instructions issued per FU type, per thread (Count)
system.cpu.statIssuedInstType_0::SimdAes            0      0.00%     80.81% # Number of instructions issued per FU type, per thread (Count)
system.cpu.statIssuedInstType_0::SimdAesMix            0      0.00%     80.81% # Number of instructions issued per FU type, per thread (Count)
system.cpu.statIssuedInstType_0::SimdSha1Hash            0      0.00%     80.81% # Number of instructions issued per FU type, per thread (Count)
system.cpu.statIssuedInstType_0::SimdSha1Hash2            0      0.00%     80.81% # Number of instructions issued per FU type, per thread (Count)
system.cpu.statIssuedInstType_0::SimdSha256Hash            0      0.00%     80.81% # Number of instructions issued per FU type, per thread (Count)
system.cpu.statIssuedInstType_0::SimdSha256Hash2            0      0.00%     80.81% # Number of instructions issued per FU type, per thread (Count)
system.cpu.statIssuedInstType_0::SimdShaSigma2            0      0.00%     80.81% # Number of instructions issued per FU type, per thread (Count)
system.cpu.statIssuedInstType_0::SimdShaSigma3            0      0.00%     80.81% # Number of instructions issued per FU type, per thread (Count)
system.cpu.statIssuedInstType_0::SimdPredAlu            0      0.00%     80.81% # Number of instructions issued per FU type, per thread (Count)
system.cpu.statIssuedInstType_0::MemRead         7123     11.53%     92.34% # Number of instructions issued per FU type, per thread (Count)
system.cpu.statIssuedInstType_0::MemWrite         3329      5.39%     97.73% # Number of instructions issued per FU type, per thread (Count)
system.cpu.statIssuedInstType_0::FloatMemRead          895      1.45%     99.18% # Number of instructions issued per FU type, per thread (Count)
system.cpu.statIssuedInstType_0::FloatMemWrite          508      0.82%    100.00% # Number of instructions issued per FU type, per thread (Count)
system.cpu.statIssuedInstType_0::IprAccess            0      0.00%    100.00% # Number of instructions issued per FU type, per thread (Count)
system.cpu.statIssuedInstType_0::InstPrefetch            0      0.00%    100.00% # Number of instructions issued per FU type, per thread (Count)
system.cpu.statIssuedInstType_0::total          61789                       # Number of instructions issued per FU type, per thread (Count)
system.cpu.issueRate                         0.405485                       # Inst issue rate ((Count/Cycle))
system.cpu.fuBusy                                 901                       # FU busy when requested (Count)
system.cpu.fuBusyRate                        0.014582                       # FU busy rate (busy events/executed inst) ((Count/Count))
system.cpu.intInstQueueReads                   206480                       # Number of integer instruction queue reads (Count)
system.cpu.intInstQueueWrites                   95290                       # Number of integer instruction queue writes (Count)
system.cpu.intInstQueueWakeupAccesses           55250                       # Number of integer instruction queue wakeup accesses (Count)
system.cpu.fpInstQueueReads                      7420                       # Number of floating instruction queue reads (Count)
system.cpu.fpInstQueueWrites                     7014                       # Number of floating instruction queue writes (Count)
system.cpu.fpInstQueueWakeupAccesses             3410                       # Number of floating instruction queue wakeup accesses (Count)
system.cpu.vecInstQueueReads                        0                       # Number of vector instruction queue reads (Count)
system.cpu.vecInstQueueWrites                       0                       # Number of vector instruction queue writes (Count)
system.cpu.vecInstQueueWakeupAccesses               0                       # Number of vector instruction queue wakeup accesses (Count)
system.cpu.intAluAccesses                       58040                       # Number of integer alu accesses (Count)
system.cpu.fpAluAccesses                         3733                       # Number of floating point alu accesses (Count)
system.cpu.vecAluAccesses                           0                       # Number of vector alu accesses (Count)
system.cpu.numInsts                             60189                       # Number of executed instructions (Count)
system.cpu.numLoadInsts                          7697                       # Number of load instructions executed (Count)
system.cpu.numSquashedInsts                      1600                       # Number of squashed instructions skipped in execute (Count)
system.cpu.numSwp                                   0                       # Number of swp insts executed (Count)
system.cpu.numNop                                   0                       # Number of nop insts executed (Count)
system.cpu.numRefs                              11386                       # Number of memory reference insts executed (Count)
system.cpu.numBranches                           5968                       # Number of branches executed (Count)
system.cpu.numStoreInsts                         3689                       # Number of stores executed (Count)
system.cpu.numRate                           0.394985                       # Inst execution rate ((Count/Cycle))
system.cpu.timesIdled                             446                       # Number of times that the entire CPU went into an idle state and unscheduled itself (Count)
system.cpu.idleCycles                           63131                       # Total number of cycles that the CPU has spent unscheduled due to idling (Cycle)
system.cpu.committedInsts                       19676                       # Number of Instructions Simulated (Count)
system.cpu.committedOps                         39141                       # Number of Ops (including micro ops) Simulated (Count)
system.cpu.cpi                               7.744613                       # CPI: Cycles Per Instruction ((Cycle/Count))
system.cpu.totalCpi                          7.744613                       # CPI: Total CPI of All Threads ((Cycle/Count))
system.cpu.ipc                               0.129122                       # IPC: Instructions Per Cycle ((Count/Cycle))
system.cpu.totalIpc                          0.129122                       # IPC: Total IPC of All Threads ((Count/Cycle))
system.cpu.intRegfileReads                      80695                       # Number of integer regfile reads (Count)
system.cpu.intRegfileWrites                     45818                       # Number of integer regfile writes (Count)
system.cpu.fpRegfileReads                        5148                       # Number of floating regfile reads (Count)
system.cpu.fpRegfileWrites                       2715                       # Number of floating regfile writes (Count)
system.cpu.ccRegfileReads                       32366                       # number of cc regfile reads (Count)
system.cpu.ccRegfileWrites                      19221                       # number of cc regfile writes (Count)
system.cpu.miscRegfileReads                     24618                       # number of misc regfile reads (Count)
system.cpu.MemDepUnit__0.insertedLoads           8395                       # Number of loads inserted to the mem dependence unit. (Count)
system.cpu.MemDepUnit__0.insertedStores          4387                       # Number of stores inserted to the mem dependence unit. (Count)
system.cpu.MemDepUnit__0.conflictingLoads           56                       # Number of conflicting loads. (Count)
system.cpu.MemDepUnit__0.conflictingStores           24                       # Number of conflicting stores. (Count)
system.cpu.MemDepUnit__1.insertedLoads              0                       # Number of loads inserted to the mem dependence unit. (Count)
system.cpu.MemDepUnit__1.insertedStores             0                       # Number of stores inserted to the mem dependence unit. (Count)
system.cpu.MemDepUnit__1.conflictingLoads            0                       # Number of conflicting loads. (Count)
system.cpu.MemDepUnit__1.conflictingStores            0                       # Number of conflicting stores. (Count)
system.cpu.MemDepUnit__2.insertedLoads              0                       # Number of loads inserted to the mem dependence unit. (Count)
system.cpu.MemDepUnit__2.insertedStores             0                       # Number of stores inserted to the mem dependence unit. (Count)
system.cpu.MemDepUnit__2.conflictingLoads            0                       # Number of conflicting loads. (Count)
system.cpu.MemDepUnit__2.conflictingStores            0                       # Number of conflicting stores. (Count)
system.cpu.MemDepUnit__3.insertedLoads              0                       # Number of loads inserted to the mem dependence unit. (Count)
system.cpu.MemDepUnit__3.insertedStores             0                       # Number of stores inserted to the mem dependence unit. (Count)
system.cpu.MemDepUnit__3.conflictingLoads            0                       # Number of conflicting loads. (Count)
system.cpu.MemDepUnit__3.conflictingStores            0                       # Number of conflicting stores. (Count)
system.cpu.branchPred.lookups                   10015                       # Number of BP lookups (Count)
system.cpu.branchPred.condPredicted              8151                       # Number of conditional branches predicted (Count)
system.cpu.branchPred.condIncorrect              1249                       # Number of conditional branches incorrect (Count)
system.cpu.branchPred.BTBLookups                 4069                       # Number of BTB lookups (Count)
system.cpu.branchPred.BTBHits                    2933                       # Number of BTB hits (Count)
system.cpu.branchPred.BTBHitRatio            0.720816                       # BTB Hit Ratio (Ratio)
system.cpu.branchPred.RASUsed                     514                       # Number of times the RAS was used to get a target. (Count)
system.cpu.branchPred.RASIncorrect                  0                       # Number of incorrect RAS predictions. (Count)
system.cpu.branchPred.indirectLookups             236                       # Number of indirect predictor lookups. (Count)
system.cpu.branchPred.indirectHits                 13                       # Number of indirect target hits. (Count)
system.cpu.branchPred.indirectMisses              223                       # Number of indirect misses. (Count)
system.cpu.branchPred.indirectMispredicted          101                       # Number of mispredicted indirect branches. (Count)
system.cpu.commit.commitSquashedInsts           30955                       # The number of squashed insts skipped by commit (Count)
system.cpu.commit.branchMispredicts               906                       # The number of times a branch was mispredicted (Count)
system.cpu.commit.numCommittedDist::samples        84706                       # Number of insts commited each cycle (Count)
system.cpu.commit.numCommittedDist::mean     0.462081                       # Number of insts commited each cycle (Count)
system.cpu.commit.numCommittedDist::stdev     1.442876                       # Number of insts commited each cycle (Count)
system.cpu.commit.numCommittedDist::underflows            0      0.00%      0.00% # Number of insts commited each cycle (Count)
system.cpu.commit.numCommittedDist::0           72733     85.87%     85.87% # Number of insts commited each cycle (Count)
system.cpu.commit.numCommittedDist::1            3536      4.17%     90.04% # Number of insts commited each cycle (Count)
system.cpu.commit.numCommittedDist::2            2118      2.50%     92.54% # Number of insts commited each cycle (Count)
system.cpu.commit.numCommittedDist::3            2474      2.92%     95.46% # Number of insts commited each cycle (Count)
system.cpu.commit.numCommittedDist::4             992      1.17%     96.63% # Number of insts commited each cycle (Count)
system.cpu.commit.numCommittedDist::5             624      0.74%     97.37% # Number of insts commited each cycle (Count)
system.cpu.commit.numCommittedDist::6             313      0.37%     97.74% # Number of insts commited each cycle (Count)
system.cpu.commit.numCommittedDist::7             347      0.41%     98.15% # Number of insts commited each cycle (Count)
system.cpu.commit.numCommittedDist::8            1569      1.85%    100.00% # Number of insts commited each cycle (Count)
system.cpu.commit.numCommittedDist::overflows            0      0.00%    100.00% # Number of insts commited each cycle (Count)
system.cpu.commit.numCommittedDist::min_value            0                       # Number of insts commited each cycle (Count)
system.cpu.commit.numCommittedDist::max_value            8                       # Number of insts commited each cycle (Count)
system.cpu.commit.numCommittedDist::total        84706                       # Number of insts commited each cycle (Count)
system.cpu.commit.instsCommitted                19676                       # Number of instructions committed (Count)
system.cpu.commit.opsCommitted                  39141                       # Number of ops (including micro ops) committed (Count)
system.cpu.commit.memRefs                        7242                       # Number of memory references committed (Count)
system.cpu.commit.loads                          4373                       # Number of loads committed (Count)
system.cpu.commit.amos                              0                       # Number of atomic instructions committed (Count)
system.cpu.commit.membars                           0                       # Number of memory barriers committed (Count)
system.cpu.commit.branches                       4466                       # Number of branches committed (Count)
system.cpu.commit.vectorInstructions                0                       # Number of committed Vector instructions. (Count)
system.cpu.commit.floating                       1912                       # Number of committed floating point instructions. (Count)
system.cpu.commit.integer                       37334                       # Number of committed integer instructions. (Count)
system.cpu.commit.functionCalls                   250                       # Number of function calls committed. (Count)
system.cpu.commit.committedInstType_0::No_OpClass          412      1.05%      1.05% # Class of committed instruction (Count)
system.cpu.commit.committedInstType_0::IntAlu        30304     77.42%     78.48% # Class of committed instruction (Count)
system.cpu.commit.committedInstType_0::IntMult           14      0.04%     78.51% # Class of committed instruction (Count)
system.cpu.commit.committedInstType_0::IntDiv           41      0.10%     78.62% # Class of committed instruction (Count)
system.cpu.commit.committedInstType_0::FloatAdd           77      0.20%     78.81% # Class of committed instruction (Count)
system.cpu.commit.committedInstType_0::FloatCmp            0      0.00%     78.81% # Class of committed instruction (Count)
system.cpu.commit.committedInstType_0::FloatCvt            0      0.00%     78.81% # Class of committed instruction (Count)
system.cpu.commit.committedInstType_0::FloatMult            0      0.00%     78.81% # Class of committed instruction (Count)
system.cpu.commit.committedInstType_0::FloatMultAcc            0      0.00%     78.81% # Class of committed instruction (Count)
system.cpu.commit.committedInstType_0::FloatDiv            0      0.00%     78.81% # Class of committed instruction (Count)
system.cpu.commit.committedInstType_0::FloatMisc            0      0.00%     78.81% # Class of committed instruction (Count)
system.cpu.commit.committedInstType_0::FloatSqrt            0      0.00%     78.81% # Class of committed instruction (Count)
system.cpu.commit.committedInstType_0::SimdAdd           80      0.20%     79.02% # Class of committed instruction (Count)
system.cpu.commit.committedInstType_0::SimdAddAcc            0      0.00%     79.02% # Class of committed instruction (Count)
system.cpu.commit.committedInstType_0::SimdAlu          293      0.75%     79.77% # Class of committed instruction (Count)
system.cpu.commit.committedInstType_0::SimdCmp            0      0.00%     79.77% # Class of committed instruction (Count)
system.cpu.commit.committedInstType_0::SimdCvt          268      0.68%     80.45% # Class of committed instruction (Count)
system.cpu.commit.committedInstType_0::SimdMisc          344      0.88%     81.33% # Class of committed instruction (Count)
system.cpu.commit.committedInstType_0::SimdMult            0      0.00%     81.33% # Class of committed instruction (Count)
system.cpu.commit.committedInstType_0::SimdMultAcc            0      0.00%     81.33% # Class of committed instruction (Count)
system.cpu.commit.committedInstType_0::SimdShift           66      0.17%     81.50% # Class of committed instruction (Count)
system.cpu.commit.committedInstType_0::SimdShiftAcc            0      0.00%     81.50% # Class of committed instruction (Count)
system.cpu.commit.committedInstType_0::SimdDiv            0      0.00%     81.50% # Class of committed instruction (Count)
system.cpu.commit.committedInstType_0::SimdSqrt            0      0.00%     81.50% # Class of committed instruction (Count)
system.cpu.commit.committedInstType_0::SimdFloatAdd            0      0.00%     81.50% # Class of committed instruction (Count)
system.cpu.commit.committedInstType_0::SimdFloatAlu            0      0.00%     81.50% # Class of committed instruction (Count)
system.cpu.commit.committedInstType_0::SimdFloatCmp            0      0.00%     81.50% # Class of committed instruction (Count)
system.cpu.commit.committedInstType_0::SimdFloatCvt            0      0.00%     81.50% # Class of committed instruction (Count)
system.cpu.commit.committedInstType_0::SimdFloatDiv            0      0.00%     81.50% # Class of committed instruction (Count)
system.cpu.commit.committedInstType_0::SimdFloatMisc            0      0.00%     81.50% # Class of committed instruction (Count)
system.cpu.commit.committedInstType_0::SimdFloatMult            0      0.00%     81.50% # Class of committed instruction (Count)
system.cpu.commit.committedInstType_0::SimdFloatMultAcc            0      0.00%     81.50% # Class of committed instruction (Count)
system.cpu.commit.committedInstType_0::SimdFloatSqrt            0      0.00%     81.50% # Class of committed instruction (Count)
system.cpu.commit.committedInstType_0::SimdReduceAdd            0      0.00%     81.50% # Class of committed instruction (Count)
system.cpu.commit.committedInstType_0::SimdReduceAlu            0      0.00%     81.50% # Class of committed instruction (Count)
system.cpu.commit.committedInstType_0::SimdReduceCmp            0      0.00%     81.50% # Class of committed instruction (Count)
system.cpu.commit.committedInstType_0::SimdFloatReduceAdd            0      0.00%     81.50% # Class of committed instruction (Count)
system.cpu.commit.committedInstType_0::SimdFloatReduceCmp            0      0.00%     81.50% # Class of committed instruction (Count)
system.cpu.commit.committedInstType_0::SimdAes            0      0.00%     81.50% # Class of committed instruction (Count)
system.cpu.commit.committedInstType_0::SimdAesMix            0      0.00%     81.50% # Class of committed instruction (Count)
system.cpu.commit.committedInstType_0::SimdSha1Hash            0      0.00%     81.50% # Class of committed instruction (Count)
system.cpu.commit.committedInstType_0::SimdSha1Hash2            0      0.00%     81.50% # Class of committed instruction (Count)
system.cpu.commit.committedInstType_0::SimdSha256Hash            0      0.00%     81.50% # Class of committed instruction (Count)
system.cpu.commit.committedInstType_0::SimdSha256Hash2            0      0.00%     81.50% # Class of committed instruction (Count)
system.cpu.commit.committedInstType_0::SimdShaSigma2            0      0.00%     81.50% # Class of committed instruction (Count)
system.cpu.commit.committedInstType_0::SimdShaSigma3            0      0.00%     81.50% # Class of committed instruction (Count)
system.cpu.commit.committedInstType_0::SimdPredAlu            0      0.00%     81.50% # Class of committed instruction (Count)
system.cpu.commit.committedInstType_0::MemRead         4063     10.38%     91.88% # Class of committed instruction (Count)
system.cpu.commit.committedInstType_0::MemWrite         2469      6.31%     98.19% # Class of committed instruction (Count)
system.cpu.commit.committedInstType_0::FloatMemRead          310      0.79%     98.98% # Class of committed instruction (Count)
system.cpu.commit.committedInstType_0::FloatMemWrite          400      1.02%    100.00% # Class of committed instruction (Count)
system.cpu.commit.committedInstType_0::IprAccess            0      0.00%    100.00% # Class of committed instruction (Count)
system.cpu.commit.committedInstType_0::InstPrefetch            0      0.00%    100.00% # Class of committed instruction (Count)
system.cpu.commit.committedInstType_0::total        39141                       # Class of committed instruction (Count)
system.cpu.commit.commitEligibleSamples          1569                       # number cycles where commit BW limit reached (Cycle)
system.cpu.dcache.demandHits::cpu.data           8407                       # number of demand (read+write) hits (Count)
system.cpu.dcache.demandHits::total              8407                       # number of demand (read+write) hits (Count)
system.cpu.dcache.overallHits::cpu.data          8407                       # number of overall hits (Count)
system.cpu.dcache.overallHits::total             8407                       # number of overall hits (Count)
system.cpu.dcache.demandMisses::cpu.data         1309                       # number of demand (read+write) misses (Count)
system.cpu.dcache.demandMisses::total            1309                       # number of demand (read+write) misses (Count)
system.cpu.dcache.overallMisses::cpu.data         1309                       # number of overall misses (Count)
system.cpu.dcache.overallMisses::total           1309                       # number of overall misses (Count)
system.cpu.dcache.demandMissLatency::cpu.data     58389250                       # number of demand (read+write) miss ticks (Tick)
system.cpu.dcache.demandMissLatency::total     58389250                       # number of demand (read+write) miss ticks (Tick)
system.cpu.dcache.overallMissLatency::cpu.data     58389250                       # number of overall miss ticks (Tick)
system.cpu.dcache.overallMissLatency::total     58389250                       # number of overall miss ticks (Tick)
system.cpu.dcache.demandAccesses::cpu.data         9716                       # number of demand (read+write) accesses (Count)
system.cpu.dcache.demandAccesses::total          9716                       # number of demand (read+write) accesses (Count)
system.cpu.dcache.overallAccesses::cpu.data         9716                       # number of overall (read+write) accesses (Count)
system.cpu.dcache.overallAccesses::total         9716                       # number of overall (read+write) accesses (Count)
system.cpu.dcache.demandMissRate::cpu.data     0.134726                       # miss rate for demand accesses (Ratio)
system.cpu.dcache.demandMissRate::total      0.134726                       # miss rate for demand accesses (Ratio)
system.cpu.dcache.overallMissRate::cpu.data     0.134726                       # miss rate for overall accesses (Ratio)
system.cpu.dcache.overallMissRate::total     0.134726                       # miss rate for overall accesses (Ratio)
system.cpu.dcache.demandAvgMissLatency::cpu.data 44605.996944                       # average overall miss latency ((Cycle/Count))
system.cpu.dcache.demandAvgMissLatency::total 44605.996944                       # average overall miss latency ((Cycle/Count))
system.cpu.dcache.overallAvgMissLatency::cpu.data 44605.996944                       # average overall miss latency ((Cycle/Count))
system.cpu.dcache.overallAvgMissLatency::total 44605.996944                       # average overall miss latency ((Cycle/Count))
system.cpu.dcache.blockedCycles::no_mshrs         4284                       # number of cycles access was blocked (Cycle)
system.cpu.dcache.blockedCycles::no_targets            0                       # number of cycles access was blocked (Cycle)
system.cpu.dcache.blockedCauses::no_mshrs           86                       # number of times access was blocked (Count)
system.cpu.dcache.blockedCauses::no_targets            0                       # number of times access was blocked (Count)
system.cpu.dcache.avgBlocked::no_mshrs      49.813953                       # average number of cycles each access was blocked ((Cycle/Count))
system.cpu.dcache.avgBlocked::no_targets          nan                       # average number of cycles each access was blocked ((Cycle/Count))
system.cpu.dcache.writebacks::writebacks           18                       # number of writebacks (Count)
system.cpu.dcache.writebacks::total                18                       # number of writebacks (Count)
system.cpu.dcache.demandMshrHits::cpu.data          780                       # number of demand (read+write) MSHR hits (Count)
system.cpu.dcache.demandMshrHits::total           780                       # number of demand (read+write) MSHR hits (Count)
system.cpu.dcache.overallMshrHits::cpu.data          780                       # number of overall MSHR hits (Count)
system.cpu.dcache.overallMshrHits::total          780                       # number of overall MSHR hits (Count)
system.cpu.dcache.demandMshrMisses::cpu.data          529                       # number of demand (read+write) MSHR misses (Count)
system.cpu.dcache.demandMshrMisses::total          529                       # number of demand (read+write) MSHR misses (Count)
system.cpu.dcache.overallMshrMisses::cpu.data          529                       # number of overall MSHR misses (Count)
system.cpu.dcache.overallMshrMisses::total          529                       # number of overall MSHR misses (Count)
system.cpu.dcache.demandMshrMissLatency::cpu.data     27104750                       # number of demand (read+write) MSHR miss ticks (Tick)
system.cpu.dcache.demandMshrMissLatency::total     27104750                       # number of demand (read+write) MSHR miss ticks (Tick)
system.cpu.dcache.overallMshrMissLatency::cpu.data     27104750                       # number of overall MSHR miss ticks (Tick)
system.cpu.dcache.overallMshrMissLatency::total     27104750                       # number of overall MSHR miss ticks (Tick)
system.cpu.dcache.demandMshrMissRate::cpu.data     0.054446                       # mshr miss ratio for demand accesses (Ratio)
system.cpu.dcache.demandMshrMissRate::total     0.054446                       # mshr miss ratio for demand accesses (Ratio)
system.cpu.dcache.overallMshrMissRate::cpu.data     0.054446                       # mshr miss ratio for overall accesses (Ratio)
system.cpu.dcache.overallMshrMissRate::total     0.054446                       # mshr miss ratio for overall accesses (Ratio)
system.cpu.dcache.demandAvgMshrMissLatency::cpu.data 51237.712665                       # average overall mshr miss latency ((Cycle/Count))
system.cpu.dcache.demandAvgMshrMissLatency::total 51237.712665                       # average overall mshr miss latency ((Cycle/Count))
system.cpu.dcache.overallAvgMshrMissLatency::cpu.data 51237.712665                       # average overall mshr miss latency ((Cycle/Count))
system.cpu.dcache.overallAvgMshrMissLatency::total 51237.712665                       # average overall mshr miss latency ((Cycle/Count))
system.cpu.dcache.replacements                     43                       # number of replacements (Count)
system.cpu.dcache.ReadReq.hits::cpu.data         5789                       # number of ReadReq hits (Count)
system.cpu.dcache.ReadReq.hits::total            5789                       # number of ReadReq hits (Count)
system.cpu.dcache.ReadReq.misses::cpu.data         1057                       # number of ReadReq misses (Count)
system.cpu.dcache.ReadReq.misses::total          1057                       # number of ReadReq misses (Count)
system.cpu.dcache.ReadReq.missLatency::cpu.data     45822250                       # number of ReadReq miss ticks (Tick)
system.cpu.dcache.ReadReq.missLatency::total     45822250                       # number of ReadReq miss ticks (Tick)
system.cpu.dcache.ReadReq.accesses::cpu.data         6846                       # number of ReadReq accesses(hits+misses) (Count)
system.cpu.dcache.ReadReq.accesses::total         6846                       # number of ReadReq accesses(hits+misses) (Count)
system.cpu.dcache.ReadReq.missRate::cpu.data     0.154397                       # miss rate for ReadReq accesses (Ratio)
system.cpu.dcache.ReadReq.missRate::total     0.154397                       # miss rate for ReadReq accesses (Ratio)
system.cpu.dcache.ReadReq.avgMissLatency::cpu.data 43351.229896                       # average ReadReq miss latency ((Tick/Count))
system.cpu.dcache.ReadReq.avgMissLatency::total 43351.229896                       # average ReadReq miss latency ((Tick/Count))
system.cpu.dcache.ReadReq.mshrHits::cpu.data          777                       # number of ReadReq MSHR hits (Count)
system.cpu.dcache.ReadReq.mshrHits::total          777                       # number of ReadReq MSHR hits (Count)
system.cpu.dcache.ReadReq.mshrMisses::cpu.data          280                       # number of ReadReq MSHR misses (Count)
system.cpu.dcache.ReadReq.mshrMisses::total          280                       # number of ReadReq MSHR misses (Count)
system.cpu.dcache.ReadReq.mshrMissLatency::cpu.data     14820750                       # number of ReadReq MSHR miss ticks (Tick)
system.cpu.dcache.ReadReq.mshrMissLatency::total     14820750                       # number of ReadReq MSHR miss ticks (Tick)
system.cpu.dcache.ReadReq.mshrMissRate::cpu.data     0.040900                       # mshr miss rate for ReadReq accesses (Ratio)
system.cpu.dcache.ReadReq.mshrMissRate::total     0.040900                       # mshr miss rate for ReadReq accesses (Ratio)
system.cpu.dcache.ReadReq.avgMshrMissLatency::cpu.data 52931.250000                       # average ReadReq mshr miss latency ((Tick/Count))
system.cpu.dcache.ReadReq.avgMshrMissLatency::total 52931.250000                       # average ReadReq mshr miss latency ((Tick/Count))
system.cpu.dcache.WriteReq.hits::cpu.data         2618                       # number of WriteReq hits (Count)
system.cpu.dcache.WriteReq.hits::total           2618                       # number of WriteReq hits (Count)
system.cpu.dcache.WriteReq.misses::cpu.data          252                       # number of WriteReq misses (Count)
system.cpu.dcache.WriteReq.misses::total          252                       # number of WriteReq misses (Count)
system.cpu.dcache.WriteReq.missLatency::cpu.data     12567000                       # number of WriteReq miss ticks (Tick)
system.cpu.dcache.WriteReq.missLatency::total     12567000                       # number of WriteReq miss ticks (Tick)
system.cpu.dcache.WriteReq.accesses::cpu.data         2870                       # number of WriteReq accesses(hits+misses) (Count)
system.cpu.dcache.WriteReq.accesses::total         2870                       # number of WriteReq accesses(hits+misses) (Count)
system.cpu.dcache.WriteReq.missRate::cpu.data     0.087805                       # miss rate for WriteReq accesses (Ratio)
system.cpu.dcache.WriteReq.missRate::total     0.087805                       # miss rate for WriteReq accesses (Ratio)
system.cpu.dcache.WriteReq.avgMissLatency::cpu.data 49869.047619                       # average WriteReq miss latency ((Tick/Count))
system.cpu.dcache.WriteReq.avgMissLatency::total 49869.047619                       # average WriteReq miss latency ((Tick/Count))
system.cpu.dcache.WriteReq.mshrHits::cpu.data            3                       # number of WriteReq MSHR hits (Count)
system.cpu.dcache.WriteReq.mshrHits::total            3                       # number of WriteReq MSHR hits (Count)
system.cpu.dcache.WriteReq.mshrMisses::cpu.data          249                       # number of WriteReq MSHR misses (Count)
system.cpu.dcache.WriteReq.mshrMisses::total          249                       # number of WriteReq MSHR misses (Count)
system.cpu.dcache.WriteReq.mshrMissLatency::cpu.data     12284000                       # number of WriteReq MSHR miss ticks (Tick)
system.cpu.dcache.WriteReq.mshrMissLatency::total     12284000                       # number of WriteReq MSHR miss ticks (Tick)
system.cpu.dcache.WriteReq.mshrMissRate::cpu.data     0.086760                       # mshr miss rate for WriteReq accesses (Ratio)
system.cpu.dcache.WriteReq.mshrMissRate::total     0.086760                       # mshr miss rate for WriteReq accesses (Ratio)
system.cpu.dcache.WriteReq.avgMshrMissLatency::cpu.data 49333.333333                       # average WriteReq mshr miss latency ((Tick/Count))
system.cpu.dcache.WriteReq.avgMshrMissLatency::total 49333.333333                       # average WriteReq mshr miss latency ((Tick/Count))
system.cpu.dcache.power_state.pwrStateResidencyTicks::UNDEFINED     38095500                       # Cumulative time (in ticks) in various power states (Tick)
system.cpu.dcache.tags.tagsInUse           289.501245                       # Average ticks per tags in use ((Tick/Count))
system.cpu.dcache.tags.totalRefs                 8936                       # Total number of references to valid blocks. (Count)
system.cpu.dcache.tags.sampledRefs                529                       # Sample count of references to valid blocks. (Count)
system.cpu.dcache.tags.avgRefs              16.892250                       # Average number of references to valid blocks. ((Count/Count))
system.cpu.dcache.tags.warmupTick              131750                       # The tick when the warmup percentage was hit. (Tick)
system.cpu.dcache.tags.occupancies::cpu.data   289.501245                       # Average occupied blocks per tick, per requestor ((Count/Tick))
system.cpu.dcache.tags.avgOccs::cpu.data     0.282716                       # Average percentage of cache occupancy ((Ratio/Tick))
system.cpu.dcache.tags.avgOccs::total        0.282716                       # Average percentage of cache occupancy ((Ratio/Tick))
system.cpu.dcache.tags.occupanciesTaskId::1024          486                       # Occupied blocks per task id (Count)
system.cpu.dcache.tags.ageTaskId_1024::0          117                       # Occupied blocks per task id, per block age (Count)
system.cpu.dcache.tags.ageTaskId_1024::1          369                       # Occupied blocks per task id, per block age (Count)
system.cpu.dcache.tags.ratioOccsTaskId::1024     0.474609                       # Ratio of occupied blocks and all blocks, per task id (Ratio)
system.cpu.dcache.tags.tagAccesses              19961                       # Number of tag accesses (Count)
system.cpu.dcache.tags.dataAccesses             19961                       # Number of data accesses (Count)
system.cpu.dcache.tags.power_state.pwrStateResidencyTicks::UNDEFINED     38095500                       # Cumulative time (in ticks) in various power states (Tick)
system.cpu.decode.idleCycles                    40345                       # Number of cycles decode is idle (Cycle)
system.cpu.decode.blockedCycles                 36236                       # Number of cycles decode is blocked (Cycle)
system.cpu.decode.runCycles                     10168                       # Number of cycles decode is running (Cycle)
system.cpu.decode.unblockCycles                  1520                       # Number of cycles decode is unblocking (Cycle)
system.cpu.decode.squashCycles                    983                       # Number of cycles decode is squashing (Cycle)
system.cpu.decode.branchResolved                 3012                       # Number of times decode resolved a branch (Count)
system.cpu.decode.branchMispred                   352                       # Number of times decode detected a branch misprediction (Count)
system.cpu.decode.decodedInsts                  79072                       # Number of instructions handled by decode (Count)
system.cpu.decode.squashedInsts                  1684                       # Number of squashed instructions handled by decode (Count)
system.cpu.dtb_walker_cache.blockedCycles::no_mshrs            0                       # number of cycles access was blocked (Cycle)
system.cpu.dtb_walker_cache.blockedCycles::no_targets            0                       # number of cycles access was blocked (Cycle)
system.cpu.dtb_walker_cache.blockedCauses::no_mshrs            0                       # number of times access was blocked (Count)
system.cpu.dtb_walker_cache.blockedCauses::no_targets            0                       # number of times access was blocked (Count)
system.cpu.dtb_walker_cache.avgBlocked::no_mshrs          nan                       # average number of cycles each access was blocked ((Cycle/Count))
system.cpu.dtb_walker_cache.avgBlocked::no_targets          nan                       # average number of cycles each access was blocked ((Cycle/Count))
system.cpu.dtb_walker_cache.replacements            0                       # number of replacements (Count)
system.cpu.dtb_walker_cache.power_state.pwrStateResidencyTicks::UNDEFINED     38095500                       # Cumulative time (in ticks) in various power states (Tick)
system.cpu.dtb_walker_cache.tags.tagsInUse            0                       # Average ticks per tags in use ((Tick/Count))
system.cpu.dtb_walker_cache.tags.totalRefs            0                       # Total number of references to valid blocks. (Count)
system.cpu.dtb_walker_cache.tags.sampledRefs            0                       # Sample count of references to valid blocks. (Count)
system.cpu.dtb_walker_cache.tags.avgRefs          nan                       # Average number of references to valid blocks. ((Count/Count))
system.cpu.dtb_walker_cache.tags.warmupTick            0                       # The tick when the warmup percentage was hit. (Tick)
system.cpu.dtb_walker_cache.tags.tagAccesses            0                       # Number of tag accesses (Count)
system.cpu.dtb_walker_cache.tags.dataAccesses            0                       # Number of data accesses (Count)
system.cpu.dtb_walker_cache.tags.power_state.pwrStateResidencyTicks::UNDEFINED     38095500                       # Cumulative time (in ticks) in various power states (Tick)
system.cpu.fetch.icacheStallCycles              43153                       # Number of cycles fetch is stalled on an Icache miss (Cycle)
system.cpu.fetch.insts                          44954                       # Number of instructions fetch has processed (Count)
system.cpu.fetch.branches                       10015                       # Number of branches that fetch encountered (Count)
system.cpu.fetch.predictedBranches               3460                       # Number of branches that fetch has predicted taken (Count)
system.cpu.fetch.cycles                         44771                       # Number of cycles fetch has run and was not squashing or blocked (Cycle)
system.cpu.fetch.squashCycles                    2652                       # Number of cycles fetch has spent squashing (Cycle)
system.cpu.fetch.pendingQuiesceStallCycles            2                       # Number of stall cycles due to pending quiesce instructions (Cycle)
system.cpu.fetch.cacheLines                      5961                       # Number of cache lines fetched (Count)
system.cpu.fetch.icacheSquashes                   685                       # Number of outstanding Icache misses that were squashed (Count)
system.cpu.fetch.nisnDist::samples              89252                       # Number of instructions fetched each cycle (Total) (Count)
system.cpu.fetch.nisnDist::mean              0.990039                       # Number of instructions fetched each cycle (Total) (Count)
system.cpu.fetch.nisnDist::stdev             2.486265                       # Number of instructions fetched each cycle (Total) (Count)
system.cpu.fetch.nisnDist::underflows               0      0.00%      0.00% # Number of instructions fetched each cycle (Total) (Count)
system.cpu.fetch.nisnDist::0                    75609     84.71%     84.71% # Number of instructions fetched each cycle (Total) (Count)
system.cpu.fetch.nisnDist::1                      621      0.70%     85.41% # Number of instructions fetched each cycle (Total) (Count)
system.cpu.fetch.nisnDist::2                      590      0.66%     86.07% # Number of instructions fetched each cycle (Total) (Count)
system.cpu.fetch.nisnDist::3                      685      0.77%     86.84% # Number of instructions fetched each cycle (Total) (Count)
system.cpu.fetch.nisnDist::4                     1084      1.21%     88.05% # Number of instructions fetched each cycle (Total) (Count)
system.cpu.fetch.nisnDist::5                      970      1.09%     89.14% # Number of instructions fetched each cycle (Total) (Count)
system.cpu.fetch.nisnDist::6                      721      0.81%     89.95% # Number of instructions fetched each cycle (Total) (Count)
system.cpu.fetch.nisnDist::7                      781      0.88%     90.82% # Number of instructions fetched each cycle (Total) (Count)
system.cpu.fetch.nisnDist::8                     8191      9.18%    100.00% # Number of instructions fetched each cycle (Total) (Count)
system.cpu.fetch.nisnDist::overflows                0      0.00%    100.00% # Number of instructions fetched each cycle (Total) (Count)
system.cpu.fetch.nisnDist::min_value                0                       # Number of instructions fetched each cycle (Total) (Count)
system.cpu.fetch.nisnDist::max_value                8                       # Number of instructions fetched each cycle (Total) (Count)
system.cpu.fetch.nisnDist::total                89252                       # Number of instructions fetched each cycle (Total) (Count)
system.cpu.fetch.branchRate                  0.065723                       # Number of branch fetches per cycle (Ratio)
system.cpu.fetch.rate                        0.295007                       # Number of inst fetches per cycle ((Count/Cycle))
system.cpu.icache.demandHits::cpu.inst           4927                       # number of demand (read+write) hits (Count)
system.cpu.icache.demandHits::total              4927                       # number of demand (read+write) hits (Count)
system.cpu.icache.overallHits::cpu.inst          4927                       # number of overall hits (Count)
system.cpu.icache.overallHits::total             4927                       # number of overall hits (Count)
system.cpu.icache.demandMisses::cpu.inst         1034                       # number of demand (read+write) misses (Count)
system.cpu.icache.demandMisses::total            1034                       # number of demand (read+write) misses (Count)
system.cpu.icache.overallMisses::cpu.inst         1034                       # number of overall misses (Count)
system.cpu.icache.overallMisses::total           1034                       # number of overall misses (Count)
system.cpu.icache.demandMissLatency::cpu.inst     47829500                       # number of demand (read+write) miss ticks (Tick)
system.cpu.icache.demandMissLatency::total     47829500                       # number of demand (read+write) miss ticks (Tick)
system.cpu.icache.overallMissLatency::cpu.inst     47829500                       # number of overall miss ticks (Tick)
system.cpu.icache.overallMissLatency::total     47829500                       # number of overall miss ticks (Tick)
system.cpu.icache.demandAccesses::cpu.inst         5961                       # number of demand (read+write) accesses (Count)
system.cpu.icache.demandAccesses::total          5961                       # number of demand (read+write) accesses (Count)
system.cpu.icache.overallAccesses::cpu.inst         5961                       # number of overall (read+write) accesses (Count)
system.cpu.icache.overallAccesses::total         5961                       # number of overall (read+write) accesses (Count)
system.cpu.icache.demandMissRate::cpu.inst     0.173461                       # miss rate for demand accesses (Ratio)
system.cpu.icache.demandMissRate::total      0.173461                       # miss rate for demand accesses (Ratio)
system.cpu.icache.overallMissRate::cpu.inst     0.173461                       # miss rate for overall accesses (Ratio)
system.cpu.icache.overallMissRate::total     0.173461                       # miss rate for overall accesses (Ratio)
system.cpu.icache.demandAvgMissLatency::cpu.inst 46256.769826                       # average overall miss latency ((Cycle/Count))
system.cpu.icache.demandAvgMissLatency::total 46256.769826                       # average overall miss latency ((Cycle/Count))
system.cpu.icache.overallAvgMissLatency::cpu.inst 46256.769826                       # average overall miss latency ((Cycle/Count))
system.cpu.icache.overallAvgMissLatency::total 46256.769826                       # average overall miss latency ((Cycle/Count))
system.cpu.icache.blockedCycles::no_mshrs          394                       # number of cycles access was blocked (Cycle)
system.cpu.icache.blockedCycles::no_targets            0                       # number of cycles access was blocked (Cycle)
system.cpu.icache.blockedCauses::no_mshrs            3                       # number of times access was blocked (Count)
system.cpu.icache.blockedCauses::no_targets            0                       # number of times access was blocked (Count)
system.cpu.icache.avgBlocked::no_mshrs     131.333333                       # average number of cycles each access was blocked ((Cycle/Count))
system.cpu.icache.avgBlocked::no_targets          nan                       # average number of cycles each access was blocked ((Cycle/Count))
system.cpu.icache.writebacks::writebacks           71                       # number of writebacks (Count)
system.cpu.icache.writebacks::total                71                       # number of writebacks (Count)
system.cpu.icache.demandMshrHits::cpu.inst          309                       # number of demand (read+write) MSHR hits (Count)
system.cpu.icache.demandMshrHits::total           309                       # number of demand (read+write) MSHR hits (Count)
system.cpu.icache.overallMshrHits::cpu.inst          309                       # number of overall MSHR hits (Count)
system.cpu.icache.overallMshrHits::total          309                       # number of overall MSHR hits (Count)
system.cpu.icache.demandMshrMisses::cpu.inst          725                       # number of demand (read+write) MSHR misses (Count)
system.cpu.icache.demandMshrMisses::total          725                       # number of demand (read+write) MSHR misses (Count)
system.cpu.icache.overallMshrMisses::cpu.inst          725                       # number of overall MSHR misses (Count)
system.cpu.icache.overallMshrMisses::total          725                       # number of overall MSHR misses (Count)
system.cpu.icache.demandMshrMissLatency::cpu.inst     35940500                       # number of demand (read+write) MSHR miss ticks (Tick)
system.cpu.icache.demandMshrMissLatency::total     35940500                       # number of demand (read+write) MSHR miss ticks (Tick)
system.cpu.icache.overallMshrMissLatency::cpu.inst     35940500                       # number of overall MSHR miss ticks (Tick)
system.cpu.icache.overallMshrMissLatency::total     35940500                       # number of overall MSHR miss ticks (Tick)
system.cpu.icache.demandMshrMissRate::cpu.inst     0.121624                       # mshr miss ratio for demand accesses (Ratio)
system.cpu.icache.demandMshrMissRate::total     0.121624                       # mshr miss ratio for demand accesses (Ratio)
system.cpu.icache.overallMshrMissRate::cpu.inst     0.121624                       # mshr miss ratio for overall accesses (Ratio)
system.cpu.icache.overallMshrMissRate::total     0.121624                       # mshr miss ratio for overall accesses (Ratio)
system.cpu.icache.demandAvgMshrMissLatency::cpu.inst 49573.103448                       # average overall mshr miss latency ((Cycle/Count))
system.cpu.icache.demandAvgMshrMissLatency::total 49573.103448                       # average overall mshr miss latency ((Cycle/Count))
system.cpu.icache.overallAvgMshrMissLatency::cpu.inst 49573.103448                       # average overall mshr miss latency ((Cycle/Count))
system.cpu.icache.overallAvgMshrMissLatency::total 49573.103448                       # average overall mshr miss latency ((Cycle/Count))
system.cpu.icache.replacements                     71                       # number of replacements (Count)
system.cpu.icache.ReadReq.hits::cpu.inst         4927                       # number of ReadReq hits (Count)
system.cpu.icache.ReadReq.hits::total            4927                       # number of ReadReq hits (Count)
system.cpu.icache.ReadReq.misses::cpu.inst         1034                       # number of ReadReq misses (Count)
system.cpu.icache.ReadReq.misses::total          1034                       # number of ReadReq misses (Count)
system.cpu.icache.ReadReq.missLatency::cpu.inst     47829500                       # number of ReadReq miss ticks (Tick)
system.cpu.icache.ReadReq.missLatency::total     47829500                       # number of ReadReq miss ticks (Tick)
system.cpu.icache.ReadReq.accesses::cpu.inst         5961                       # number of ReadReq accesses(hits+misses) (Count)
system.cpu.icache.ReadReq.accesses::total         5961                       # number of ReadReq accesses(hits+misses) (Count)
system.cpu.icache.ReadReq.missRate::cpu.inst     0.173461                       # miss rate for ReadReq accesses (Ratio)
system.cpu.icache.ReadReq.missRate::total     0.173461                       # miss rate for ReadReq accesses (Ratio)
system.cpu.icache.ReadReq.avgMissLatency::cpu.inst 46256.769826                       # average ReadReq miss latency ((Tick/Count))
system.cpu.icache.ReadReq.avgMissLatency::total 46256.769826                       # average ReadReq miss latency ((Tick/Count))
system.cpu.icache.ReadReq.mshrHits::cpu.inst          309                       # number of ReadReq MSHR hits (Count)
system.cpu.icache.ReadReq.mshrHits::total          309                       # number of ReadReq MSHR hits (Count)
system.cpu.icache.ReadReq.mshrMisses::cpu.inst          725                       # number of ReadReq MSHR misses (Count)
system.cpu.icache.ReadReq.mshrMisses::total          725                       # number of ReadReq MSHR misses (Count)
system.cpu.icache.ReadReq.mshrMissLatency::cpu.inst     35940500                       # number of ReadReq MSHR miss ticks (Tick)
system.cpu.icache.ReadReq.mshrMissLatency::total     35940500                       # number of ReadReq MSHR miss ticks (Tick)
system.cpu.icache.ReadReq.mshrMissRate::cpu.inst     0.121624                       # mshr miss rate for ReadReq accesses (Ratio)
system.cpu.icache.ReadReq.mshrMissRate::total     0.121624                       # mshr miss rate for ReadReq accesses (Ratio)
system.cpu.icache.ReadReq.avgMshrMissLatency::cpu.inst 49573.103448                       # average ReadReq mshr miss latency ((Tick/Count))
system.cpu.icache.ReadReq.avgMshrMissLatency::total 49573.103448                       # average ReadReq mshr miss latency ((Tick/Count))
system.cpu.icache.power_state.pwrStateResidencyTicks::UNDEFINED     38095500                       # Cumulative time (in ticks) in various power states (Tick)
system.cpu.icache.tags.tagsInUse           373.514760                       # Average ticks per tags in use ((Tick/Count))
system.cpu.icache.tags.totalRefs                 5652                       # Total number of references to valid blocks. (Count)
system.cpu.icache.tags.sampledRefs                725                       # Sample count of references to valid blocks. (Count)
system.cpu.icache.tags.avgRefs               7.795862                       # Average number of references to valid blocks. ((Count/Count))
system.cpu.icache.tags.warmupTick               68750                       # The tick when the warmup percentage was hit. (Tick)
system.cpu.icache.tags.occupancies::cpu.inst   373.514760                       # Average occupied blocks per tick, per requestor ((Count/Tick))
system.cpu.icache.tags.avgOccs::cpu.inst     0.364761                       # Average percentage of cache occupancy ((Ratio/Tick))
system.cpu.icache.tags.avgOccs::total        0.364761                       # Average percentage of cache occupancy ((Ratio/Tick))
system.cpu.icache.tags.occupanciesTaskId::1024          654                       # Occupied blocks per task id (Count)
system.cpu.icache.tags.ageTaskId_1024::0          135                       # Occupied blocks per task id, per block age (Count)
system.cpu.icache.tags.ageTaskId_1024::1          519                       # Occupied blocks per task id, per block age (Count)
system.cpu.icache.tags.ratioOccsTaskId::1024     0.638672                       # Ratio of occupied blocks and all blocks, per task id (Ratio)
system.cpu.icache.tags.tagAccesses              12647                       # Number of tag accesses (Count)
system.cpu.icache.tags.dataAccesses             12647                       # Number of data accesses (Count)
system.cpu.icache.tags.power_state.pwrStateResidencyTicks::UNDEFINED     38095500                       # Cumulative time (in ticks) in various power states (Tick)
system.cpu.iew.idleCycles                           0                       # Number of cycles IEW is idle (Cycle)
system.cpu.iew.squashCycles                       983                       # Number of cycles IEW is squashing (Cycle)
system.cpu.iew.blockCycles                      14597                       # Number of cycles IEW is blocking (Cycle)
system.cpu.iew.unblockCycles                     2288                       # Number of cycles IEW is unblocking (Cycle)
system.cpu.iew.dispatchedInsts                  70705                       # Number of instructions dispatched to IQ (Count)
system.cpu.iew.dispSquashedInsts                  153                       # Number of squashed instructions skipped by dispatch (Count)
system.cpu.iew.dispLoadInsts                     8395                       # Number of dispatched load instructions (Count)
system.cpu.iew.dispStoreInsts                    4387                       # Number of dispatched store instructions (Count)
system.cpu.iew.dispNonSpecInsts                     1                       # Number of dispatched non-speculative instructions (Count)
system.cpu.iew.iqFullEvents                        86                       # Number of times the IQ has become full, causing a stall (Count)
system.cpu.iew.lsqFullEvents                     2124                       # Number of times the LSQ has become full, causing a stall (Count)
system.cpu.iew.memOrderViolationEvents             44                       # Number of memory order violations (Count)
system.cpu.iew.predictedTakenIncorrect            151                       # Number of branches that were predicted taken incorrectly (Count)
system.cpu.iew.predictedNotTakenIncorrect          956                       # Number of branches that were predicted not taken incorrectly (Count)
system.cpu.iew.branchMispredicts                 1107                       # Number of branch mispredicts detected at execute (Count)
system.cpu.iew.instsToCommit                    59073                       # Cumulative count of insts sent to commit (Count)
system.cpu.iew.writebackCount                   58660                       # Cumulative count of insts written-back (Count)
system.cpu.iew.producerInst                     42182                       # Number of instructions producing a value (Count)
system.cpu.iew.consumerInst                     69805                       # Number of instructions consuming a value (Count)
system.cpu.iew.wbRate                        0.384951                       # Insts written-back per cycle ((Count/Cycle))
system.cpu.iew.wbFanout                      0.604283                       # Average fanout of values written-back ((Count/Count))
system.cpu.interrupts.clk_domain.clock           4000                       # Clock period in ticks (Tick)
system.cpu.itb_walker_cache.blockedCycles::no_mshrs            0                       # number of cycles access was blocked (Cycle)
system.cpu.itb_walker_cache.blockedCycles::no_targets            0                       # number of cycles access was blocked (Cycle)
system.cpu.itb_walker_cache.blockedCauses::no_mshrs            0                       # number of times access was blocked (Count)
system.cpu.itb_walker_cache.blockedCauses::no_targets            0                       # number of times access was blocked (Count)
system.cpu.itb_walker_cache.avgBlocked::no_mshrs          nan                       # average number of cycles each access was blocked ((Cycle/Count))
system.cpu.itb_walker_cache.avgBlocked::no_targets          nan                       # average number of cycles each access was blocked ((Cycle/Count))
system.cpu.itb_walker_cache.replacements            0                       # number of replacements (Count)
system.cpu.itb_walker_cache.power_state.pwrStateResidencyTicks::UNDEFINED     38095500                       # Cumulative time (in ticks) in various power states (Tick)
system.cpu.itb_walker_cache.tags.tagsInUse            0                       # Average ticks per tags in use ((Tick/Count))
system.cpu.itb_walker_cache.tags.totalRefs            0                       # Total number of references to valid blocks. (Count)
system.cpu.itb_walker_cache.tags.sampledRefs            0                       # Sample count of references to valid blocks. (Count)
system.cpu.itb_walker_cache.tags.avgRefs          nan                       # Average number of references to valid blocks. ((Count/Count))
system.cpu.itb_walker_cache.tags.warmupTick            0                       # The tick when the warmup percentage was hit. (Tick)
system.cpu.itb_walker_cache.tags.tagAccesses            0                       # Number of tag accesses (Count)
system.cpu.itb_walker_cache.tags.dataAccesses            0                       # Number of data accesses (Count)
system.cpu.itb_walker_cache.tags.power_state.pwrStateResidencyTicks::UNDEFINED     38095500                       # Cumulative time (in ticks) in various power states (Tick)
system.cpu.lsq0.forwLoads                         359                       # Number of loads that had data forwarded from stores (Count)
system.cpu.lsq0.squashedLoads                    4022                       # Number of loads squashed (Count)
system.cpu.lsq0.ignoredResponses                    8                       # Number of memory responses ignored because the instruction is squashed (Count)
system.cpu.lsq0.memOrderViolation                  44                       # Number of memory ordering violations (Count)
system.cpu.lsq0.squashedStores                   1518                       # Number of stores squashed (Count)
system.cpu.lsq0.rescheduledLoads                    1                       # Number of loads that were rescheduled (Count)
system.cpu.lsq0.blockedByCache                     66                       # Number of times an access to memory failed due to the cache being blocked (Count)
system.cpu.lsq0.loadToUse::samples               4373                       # Distribution of cycle latency between the first time a load is issued and its completion (Unspecified)
system.cpu.lsq0.loadToUse::mean             36.136520                       # Distribution of cycle latency between the first time a load is issued and its completion (Unspecified)
system.cpu.lsq0.loadToUse::stdev            78.603606                       # Distribution of cycle latency between the first time a load is issued and its completion (Unspecified)
system.cpu.lsq0.loadToUse::0-9                   3605     82.44%     82.44% # Distribution of cycle latency between the first time a load is issued and its completion (Unspecified)
system.cpu.lsq0.loadToUse::10-19                    1      0.02%     82.46% # Distribution of cycle latency between the first time a load is issued and its completion (Unspecified)
system.cpu.lsq0.loadToUse::20-29                    2      0.05%     82.51% # Distribution of cycle latency between the first time a load is issued and its completion (Unspecified)
system.cpu.lsq0.loadToUse::30-39                    1      0.02%     82.53% # Distribution of cycle latency between the first time a load is issued and its completion (Unspecified)
system.cpu.lsq0.loadToUse::50-59                    7      0.16%     82.69% # Distribution of cycle latency between the first time a load is issued and its completion (Unspecified)
system.cpu.lsq0.loadToUse::60-69                    6      0.14%     82.83% # Distribution of cycle latency between the first time a load is issued and its completion (Unspecified)
system.cpu.lsq0.loadToUse::70-79                    7      0.16%     82.99% # Distribution of cycle latency between the first time a load is issued and its completion (Unspecified)
system.cpu.lsq0.loadToUse::80-89                    7      0.16%     83.15% # Distribution of cycle latency between the first time a load is issued and its completion (Unspecified)
system.cpu.lsq0.loadToUse::100-109                  5      0.11%     83.26% # Distribution of cycle latency between the first time a load is issued and its completion (Unspecified)
system.cpu.lsq0.loadToUse::110-119                  1      0.02%     83.28% # Distribution of cycle latency between the first time a load is issued and its completion (Unspecified)
system.cpu.lsq0.loadToUse::120-129                  4      0.09%     83.38% # Distribution of cycle latency between the first time a load is issued and its completion (Unspecified)
system.cpu.lsq0.loadToUse::130-139                  8      0.18%     83.56% # Distribution of cycle latency between the first time a load is issued and its completion (Unspecified)
system.cpu.lsq0.loadToUse::140-149                  8      0.18%     83.74% # Distribution of cycle latency between the first time a load is issued and its completion (Unspecified)
[...]
system.mem_ctrls.dram.bwWrite::total         30239792                       # Write bandwidth from this memory ((Byte/Second))
system.mem_ctrls.dram.bwTotal::writebacks     30239792                       # Total bandwidth to/from this memory ((Byte/Second))
system.mem_ctrls.dram.bwTotal::cpu.inst    1217991626                       # Total bandwidth to/from this memory ((Byte/Second))
system.mem_ctrls.dram.bwTotal::cpu.data     888713890                       # Total bandwidth to/from this memory ((Byte/Second))
system.mem_ctrls.dram.bwTotal::total       2136945309                       # Total bandwidth to/from this memory ((Byte/Second))
system.mem_ctrls.dram.readBursts                 1249                       # Number of DRAM read bursts (Count)
system.mem_ctrls.dram.writeBursts                  64                       # Number of DRAM write bursts (Count)
system.mem_ctrls.dram.perBankRdBursts::0           70                       # Per bank write bursts (Count)
system.mem_ctrls.dram.perBankRdBursts::1          143                       # Per bank write bursts (Count)
system.mem_ctrls.dram.perBankRdBursts::2           67                       # Per bank write bursts (Count)
system.mem_ctrls.dram.perBankRdBursts::3          142                       # Per bank write bursts (Count)
system.mem_ctrls.dram.perBankRdBursts::4          106                       # Per bank write bursts (Count)
system.mem_ctrls.dram.perBankRdBursts::5           48                       # Per bank write bursts (Count)
system.mem_ctrls.dram.perBankRdBursts::6           89                       # Per bank write bursts (Count)
system.mem_ctrls.dram.perBankRdBursts::7          122                       # Per bank write bursts (Count)
system.mem_ctrls.dram.perBankRdBursts::8           48                       # Per bank write bursts (Count)
system.mem_ctrls.dram.perBankRdBursts::9           86                       # Per bank write bursts (Count)
system.mem_ctrls.dram.perBankRdBursts::10           27                       # Per bank write bursts (Count)
system.mem_ctrls.dram.perBankRdBursts::11            3                       # Per bank write bursts (Count)
system.mem_ctrls.dram.perBankRdBursts::12           35                       # Per bank write bursts (Count)
system.mem_ctrls.dram.perBankRdBursts::13           59                       # Per bank write bursts (Count)
system.mem_ctrls.dram.perBankRdBursts::14           79                       # Per bank write bursts (Count)
system.mem_ctrls.dram.perBankRdBursts::15          125                       # Per bank write bursts (Count)
system.mem_ctrls.dram.perBankWrBursts::0            1                       # Per bank write bursts (Count)
system.mem_ctrls.dram.perBankWrBursts::1            0                       # Per bank write bursts (Count)
system.mem_ctrls.dram.perBankWrBursts::2            0                       # Per bank write bursts (Count)
system.mem_ctrls.dram.perBankWrBursts::3           16                       # Per bank write bursts (Count)
system.mem_ctrls.dram.perBankWrBursts::4            1                       # Per bank write bursts (Count)
system.mem_ctrls.dram.perBankWrBursts::5            7                       # Per bank write bursts (Count)
system.mem_ctrls.dram.perBankWrBursts::6            0                       # Per bank write bursts (Count)
system.mem_ctrls.dram.perBankWrBursts::7            0                       # Per bank write bursts (Count)
system.mem_ctrls.dram.perBankWrBursts::8           14                       # Per bank write bursts (Count)
system.mem_ctrls.dram.perBankWrBursts::9            0                       # Per bank write bursts (Count)
system.mem_ctrls.dram.perBankWrBursts::10            0                       # Per bank write bursts (Count)
system.mem_ctrls.dram.perBankWrBursts::11            0                       # Per bank write bursts (Count)
system.mem_ctrls.dram.perBankWrBursts::12            0                       # Per bank write bursts (Count)
system.mem_ctrls.dram.perBankWrBursts::13            7                       # Per bank write bursts (Count)
system.mem_ctrls.dram.perBankWrBursts::14            8                       # Per bank write bursts (Count)
system.mem_ctrls.dram.perBankWrBursts::15           10                       # Per bank write bursts (Count)
system.mem_ctrls.dram.totQLat                10824250                       # Total ticks spent queuing (Tick)
system.mem_ctrls.dram.totBusLat               6245000                       # Total ticks spent in databus transfers (Tick)
system.mem_ctrls.dram.totMemAccLat           34243000                       # Total ticks spent from burst creation until serviced by the DRAM (Tick)
system.mem_ctrls.dram.avgQLat                 8666.33                       # Average queueing delay per DRAM burst ((Tick/Count))
system.mem_ctrls.dram.avgBusLat               5000.00                       # Average bus latency per DRAM burst ((Tick/Count))
system.mem_ctrls.dram.avgMemAccLat           27416.33                       # Average memory access latency per DRAM burst ((Tick/Count))
system.mem_ctrls.dram.readRowHits                1053                       # Number of row buffer hits during reads (Count)
system.mem_ctrls.dram.writeRowHits                 57                       # Number of row buffer hits during writes (Count)
system.mem_ctrls.dram.readRowHitRate            84.31                       # Row buffer hit rate for reads (Ratio)
system.mem_ctrls.dram.writeRowHitRate           89.06                       # Row buffer hit rate for writes (Ratio)
system.mem_ctrls.dram.bytesPerActivate::samples          191                       # Bytes accessed per row activation (Byte)
system.mem_ctrls.dram.bytesPerActivate::mean   414.157068                       # Bytes accessed per row activation (Byte)
system.mem_ctrls.dram.bytesPerActivate::gmean   255.724054                       # Bytes accessed per row activation (Byte)
system.mem_ctrls.dram.bytesPerActivate::stdev   363.571460                       # Bytes accessed per row activation (Byte)
system.mem_ctrls.dram.bytesPerActivate::0-127           49     25.65%     25.65% # Bytes accessed per row activation (Byte)
system.mem_ctrls.dram.bytesPerActivate::128-255           39     20.42%     46.07% # Bytes accessed per row activation (Byte)
system.mem_ctrls.dram.bytesPerActivate::256-383           20     10.47%     56.54% # Bytes accessed per row activation (Byte)
system.mem_ctrls.dram.bytesPerActivate::384-511           14      7.33%     63.87% # Bytes accessed per row activation (Byte)
system.mem_ctrls.dram.bytesPerActivate::512-639           13      6.81%     70.68% # Bytes accessed per row activation (Byte)
system.mem_ctrls.dram.bytesPerActivate::640-767           10      5.24%     75.92% # Bytes accessed per row activation (Byte)
system.mem_ctrls.dram.bytesPerActivate::768-895            6      3.14%     79.06% # Bytes accessed per row activation (Byte)
system.mem_ctrls.dram.bytesPerActivate::896-1023            6      3.14%     82.20% # Bytes accessed per row activation (Byte)
system.mem_ctrls.dram.bytesPerActivate::1024-1151           34     17.80%    100.00% # Bytes accessed per row activation (Byte)
system.mem_ctrls.dram.bytesPerActivate::total          191                       # Bytes accessed per row activation (Byte)
system.mem_ctrls.dram.bytesRead                 79936                       # Total bytes read (Byte)
system.mem_ctrls.dram.bytesWritten               4096                       # Total bytes written (Byte)
system.mem_ctrls.dram.avgRdBW             2098.305574                       # Average DRAM read bandwidth in MiBytes/s ((Byte/Second))
system.mem_ctrls.dram.avgWrBW              107.519261                       # Average DRAM write bandwidth in MiBytes/s ((Byte/Second))
system.mem_ctrls.dram.peakBW                 12800.00                       # Theoretical peak bandwidth in MiByte/s ((Byte/Second))
system.mem_ctrls.dram.busUtil                   17.23                       # Data bus utilization in percentage (Ratio)
system.mem_ctrls.dram.busUtilRead               16.39                       # Data bus utilization in percentage for reads (Ratio)
system.mem_ctrls.dram.busUtilWrite               0.84                       # Data bus utilization in percentage for writes (Ratio)
system.mem_ctrls.dram.pageHitRate               84.54                       # Row buffer hit rate, read and write combined (Ratio)
system.mem_ctrls.dram.power_state.pwrStateResidencyTicks::UNDEFINED     38095500                       # Cumulative time (in ticks) in various power states (Tick)
system.mem_ctrls.dram.rank0.actEnergy          956760                       # Energy for activate commands per rank (pJ) (Joule)
system.mem_ctrls.dram.rank0.preEnergy          485760                       # Energy for precharge commands per rank (pJ) (Joule)
system.mem_ctrls.dram.rank0.readEnergy        5619180                       # Energy for read commands per rank (pJ) (Joule)
system.mem_ctrls.dram.rank0.writeEnergy        130500                       # Energy for write commands per rank (pJ) (Joule)
system.mem_ctrls.dram.rank0.refreshEnergy 2458560.000000                       # Energy for refresh commands per rank (pJ) (Joule)
system.mem_ctrls.dram.rank0.actBackEnergy     17281260                       # Energy for active background per rank (pJ) (Joule)
system.mem_ctrls.dram.rank0.preBackEnergy        76320                       # Energy for precharge background per rank (pJ) (Joule)
system.mem_ctrls.dram.rank0.actPowerDownEnergy            0                       # Energy for active power-down per rank (pJ) (Joule)
system.mem_ctrls.dram.rank0.prePowerDownEnergy            0                       # Energy for precharge power-down per rank (pJ) (Joule)
system.mem_ctrls.dram.rank0.selfRefreshEnergy            0                       # Energy for self refresh per rank (pJ) (Joule)
system.mem_ctrls.dram.rank0.totalEnergy      27008340                       # Total energy per rank (pJ) (Joule)
system.mem_ctrls.dram.rank0.averagePower   708.964051                       # Core power per rank (mW) (Watt)
system.mem_ctrls.dram.rank0.totalIdleTime            0                       # Total Idle time Per DRAM Rank (Tick)
system.mem_ctrls.dram.rank0.pwrStateTime::IDLE        88000                       # Time in different power states (Tick)
system.mem_ctrls.dram.rank0.pwrStateTime::REF      1040000                       # Time in different power states (Tick)
system.mem_ctrls.dram.rank0.pwrStateTime::SREF            0                       # Time in different power states (Tick)
system.mem_ctrls.dram.rank0.pwrStateTime::PRE_PDN            0                       # Time in different power states (Tick)
system.mem_ctrls.dram.rank0.pwrStateTime::ACT     36967500                       # Time in different power states (Tick)
system.mem_ctrls.dram.rank0.pwrStateTime::ACT_PDN            0                       # Time in different power states (Tick)
system.mem_ctrls.dram.rank1.actEnergy          492660                       # Energy for activate commands per rank (pJ) (Joule)
system.mem_ctrls.dram.rank1.preEnergy          239085                       # Energy for precharge commands per rank (pJ) (Joule)
system.mem_ctrls.dram.rank1.readEnergy        3298680                       # Energy for read commands per rank (pJ) (Joule)
system.mem_ctrls.dram.rank1.writeEnergy        203580                       # Energy for write commands per rank (pJ) (Joule)
system.mem_ctrls.dram.rank1.refreshEnergy 2458560.000000                       # Energy for refresh commands per rank (pJ) (Joule)
system.mem_ctrls.dram.rank1.actBackEnergy     15632820                       # Energy for active background per rank (pJ) (Joule)
system.mem_ctrls.dram.rank1.preBackEnergy      1464480                       # Energy for precharge background per rank (pJ) (Joule)
system.mem_ctrls.dram.rank1.actPowerDownEnergy            0                       # Energy for active power-down per rank (pJ) (Joule)
system.mem_ctrls.dram.rank1.prePowerDownEnergy            0                       # Energy for precharge power-down per rank (pJ) (Joule)
system.mem_ctrls.dram.rank1.selfRefreshEnergy            0                       # Energy for self refresh per rank (pJ) (Joule)
system.mem_ctrls.dram.rank1.totalEnergy      23789865                       # Total energy per rank (pJ) (Joule)
system.mem_ctrls.dram.rank1.averagePower   624.479663                       # Core power per rank (mW) (Watt)
system.mem_ctrls.dram.rank1.totalIdleTime            0                       # Total Idle time Per DRAM Rank (Tick)
system.mem_ctrls.dram.rank1.pwrStateTime::IDLE      3689750                       # Time in different power states (Tick)
system.mem_ctrls.dram.rank1.pwrStateTime::REF      1040000                       # Time in different power states (Tick)
system.mem_ctrls.dram.rank1.pwrStateTime::SREF            0                       # Time in different power states (Tick)
system.mem_ctrls.dram.rank1.pwrStateTime::PRE_PDN            0                       # Time in different power states (Tick)
system.mem_ctrls.dram.rank1.pwrStateTime::ACT     33365750                       # Time in different power states (Tick)
system.mem_ctrls.dram.rank1.pwrStateTime::ACT_PDN            0                       # Time in different power states (Tick)
system.mem_ctrls.power_state.pwrStateResidencyTicks::UNDEFINED     38095500                       # Cumulative time (in ticks) in various power states (Tick)
system.membus.transDist::ReadResp                1005                       # Transaction distribution (Count)
system.membus.transDist::WritebackDirty            18                       # Transaction distribution (Count)
system.membus.transDist::WritebackClean            71                       # Transaction distribution (Count)
system.membus.transDist::CleanEvict                25                       # Transaction distribution (Count)
system.membus.transDist::ReadExReq                249                       # Transaction distribution (Count)
system.membus.transDist::ReadExResp               249                       # Transaction distribution (Count)
system.membus.transDist::ReadCleanReq             725                       # Transaction distribution (Count)
system.membus.transDist::ReadSharedReq            280                       # Transaction distribution (Count)
system.membus.pktCount_system.cpu.icache.mem_side_port::system.mem_ctrls.port         1521                       # Packet count per connected requestor and responder (Count)
system.membus.pktCount_system.cpu.icache.mem_side_port::total         1521                       # Packet count per connected requestor and responder (Count)
system.membus.pktCount_system.cpu.dcache.mem_side_port::system.mem_ctrls.port         1101                       # Packet count per connected requestor and responder (Count)
system.membus.pktCount_system.cpu.dcache.mem_side_port::total         1101                       # Packet count per connected requestor and responder (Count)
system.membus.pktCount::total                    2622                       # Packet count per connected requestor and responder (Count)
system.membus.pktSize_system.cpu.icache.mem_side_port::system.mem_ctrls.port        50944                       # Cumulative packet size per connected requestor and responder (Byte)
system.membus.pktSize_system.cpu.icache.mem_side_port::total        50944                       # Cumulative packet size per connected requestor and responder (Byte)
system.membus.pktSize_system.cpu.dcache.mem_side_port::system.mem_ctrls.port        35008                       # Cumulative packet size per connected requestor and responder (Byte)
system.membus.pktSize_system.cpu.dcache.mem_side_port::total        35008                       # Cumulative packet size per connected requestor and responder (Byte)
system.membus.pktSize::total                    85952                       # Cumulative packet size per connected requestor and responder (Byte)
system.membus.snoops                                0                       # Total snoops (Count)
system.membus.snoopTraffic                          0                       # Total snoop traffic (Byte)
system.membus.snoopFanout::samples               1254                       # Request fanout histogram (Count)
system.membus.snoopFanout::mean              0.000797                       # Request fanout histogram (Count)
system.membus.snoopFanout::stdev             0.028239                       # Request fanout histogram (Count)
system.membus.snoopFanout::underflows               0      0.00%      0.00% # Request fanout histogram (Count)
system.membus.snoopFanout::0                     1253     99.92%     99.92% # Request fanout histogram (Count)
system.membus.snoopFanout::1                        1      0.08%    100.00% # Request fanout histogram (Count)
system.membus.snoopFanout::2                        0      0.00%    100.00% # Request fanout histogram (Count)
system.membus.snoopFanout::3                        0      0.00%    100.00% # Request fanout histogram (Count)
system.membus.snoopFanout::4                        0      0.00%    100.00% # Request fanout histogram (Count)
system.membus.snoopFanout::overflows                0      0.00%    100.00% # Request fanout histogram (Count)
system.membus.snoopFanout::min_value                0                       # Request fanout histogram (Count)
system.membus.snoopFanout::max_value                1                       # Request fanout histogram (Count)
system.membus.snoopFanout::total                 1254                       # Request fanout histogram (Count)
system.membus.power_state.pwrStateResidencyTicks::UNDEFINED     38095500                       # Cumulative time (in ticks) in various power states (Tick)
system.membus.reqLayer2.occupancy              431000                       # Layer occupancy (ticks) (Tick)
system.membus.reqLayer2.utilization               0.0                       # Layer utilization (Ratio)
system.membus.respLayer1.occupancy             906250                       # Layer occupancy (ticks) (Tick)
system.membus.respLayer1.utilization              0.0                       # Layer utilization (Ratio)
system.membus.respLayer2.occupancy             661250                       # Layer occupancy (ticks) (Tick)
system.membus.respLayer2.utilization              0.0                       # Layer utilization (Ratio)
system.membus.snoop_filter.totRequests           1368                       # Total number of requests made to the snoop filter. (Count)
system.membus.snoop_filter.hitSingleRequests          114                       # Number of requests hitting in the snoop filter with a single holder of the requested data. (Count)
system.membus.snoop_filter.hitMultiRequests            1                       # Number of requests hitting in the snoop filter with multiple (>1) holders of the requested data. (Count)
system.membus.snoop_filter.totSnoops                0                       # Total number of snoops made to the snoop filter. (Count)
system.membus.snoop_filter.hitSingleSnoops            0                       # Number of snoops hitting in the snoop filter with a single holder of the requested data. (Count)
system.membus.snoop_filter.hitMultiSnoops            0                       # Number of snoops hitting in the snoop filter with multiple (>1) holders of the requested data. (Count)
system.voltage_domain.voltage                       1                       # Voltage in Volts (Volt)
system.workload.inst.arm                            0                       # number of arm instructions executed (Count)
system.workload.inst.quiesce                        0                       # number of quiesce instructions executed (Count)

---------- End Simulation Statistics   ----------
