
---------- Begin Simulation Statistics ----------
simSeconds                                   0.000050                       # Number of seconds simulated (Second)
simTicks                                     49985000                       # Number of ticks simulated (Tick)
finalTick                                    49985000                       # Number of ticks from beginning of simulation (restored from checkpoints and never reset) (Tick)
simFreq                                  1000000000000                       # The number of ticks per simulated second ((Tick/Second))
hostSeconds                                      0.24                       # Real time elapsed on the host (Second)
hostTickRate                                206088552                       # The number of ticks simulated per host second (ticks/s) ((Tick/Second))
hostMemory                                     678308                       # Number of bytes of host memory used (Byte)
simInsts                                        19815                       # Number of instructions simulated (Count)
simOps                                          39457                       # Number of ops (including micro ops) simulated (Count)
hostInstRate                                    80878                       # Simulator instruction rate (inst/s) ((Count/Second))
hostOpRate                                     161044                       # Simulator op (including micro ops) rate (op/s) ((Count/Second))
system.clk_domain.clock                          1000                       # Clock period in ticks (Tick)
system.cpu.numCycles                            99971                       # Number of cpu cycles simulated (Cycle)
system.cpu.numWorkItemsStarted                      0                       # Number of work items this cpu started (Count)
system.cpu.numWorkItemsCompleted                    0                       # Number of work items this cpu completed (Count)
system.cpu.instsAdded                           72183                       # Number of instructions added to the IQ (excludes non-spec) (Count)
system.cpu.nonSpecInstsAdded                        1                       # Number of non-speculative instructions added to the IQ (Count)
system.cpu.instsIssued                          62735                       # Number of instructions issued (Count)
system.cpu.squashedInstsIssued                    207                       # Number of squashed instructions issued (Count)
system.cpu.squashedInstsExamined                32721                       # Number of squashed instructions iterated over during squash; mainly for profiling (Count)
system.cpu.squashedOperandsExamined             42988                       # Number of squashed operands that are examined and possibly removed from graph (Count)
system.cpu.squashedNonSpecRemoved                   1                       # Number of squashed non-spec instructions that were removed (Count)
system.cpu.numIssuedDist::samples               67284                       # Number of insts issued each cycle (Count)
system.cpu.numIssuedDist::mean               0.932391                       # Number of insts issued each cycle (Count)
system.cpu.numIssuedDist::stdev              1.872127                       # Number of insts issued each cycle (Count)
system.cpu.numIssuedDist::underflows                0      0.00%      0.00% # Number of insts issued each cycle (Count)
system.cpu.numIssuedDist::0                     49262     73.22%     73.22% # Number of insts issued each cycle (Count)
system.cpu.numIssuedDist::1                      4114      6.11%     79.33% # Number of insts issued each cycle (Count)
system.cpu.numIssuedDist::2                      2963      4.40%     83.73% # Number of insts issued each cycle (Count)
system.cpu.numIssuedDist::3                      2687      3.99%     87.73% # Number of insts issued each cycle (Count)
system.cpu.numIssuedDist::4                      2512      3.73%     91.46% # Number of insts issued each cycle (Count)
system.cpu.numIssuedDist::5                      2170      3.23%     94.69% # Number of insts issued each cycle (Count)
system.cpu.numIssuedDist::6                      1968      2.92%     97.61% # Number of insts issued each cycle (Count)
system.cpu.numIssuedDist::7                       936      1.39%     99.00% # Number of insts issued each cycle (Count)
system.cpu.numIssuedDist::8                       672      1.00%    100.00% # Number of insts issued each cycle (Count)
system.cpu.numIssuedDist::overflows                 0      0.00%    100.00% # Number of insts issued each cycle (Count)
system.cpu.numIssuedDist::min_value                 0                       # Number of insts issued each cycle (Count)
system.cpu.numIssuedDist::max_value                 8                       # Number of insts issued each cycle (Count)
system.cpu.numIssuedDist::total                 67284                       # Number of insts issued each cycle (Count)
system.cpu.statFuBusy::No_OpClass                   0      0.00%      0.00% # attempts to use FU when none available (Count)
system.cpu.statFuBusy::IntAlu                     697     81.14%     81.14% # attempts to use FU when none available (Count)
system.cpu.statFuBusy::IntMult                      0      0.00%     81.14% # attempts to use FU when none available (Count)
system.cpu.statFuBusy::IntDiv                       0      0.00%     81.14% # attempts to use FU when none available (Count)
system.cpu.statFuBusy::FloatAdd                     0      0.00%     81.14% # attempts to use FU when none available (Count)
system.cpu.statFuBusy::FloatCmp                     0      0.00%     81.14% # attempts to use FU when none available (Count)
system.cpu.statFuBusy::FloatCvt                     0      0.00%     81.14% # attempts to use FU when none available (Count)
system.cpu.statFuBusy::FloatMult                    0      0.00%     81.14% # attempts to use FU when none available (Count)
system.cpu.statFuBusy::FloatMultAcc                 0      0.00%     81.14% # attempts to use FU when none available (Count)
system.cpu.statFuBusy::FloatDiv                     0      0.00%     81.14% # attempts to use FU when none available (Count)
system.cpu.statFuBusy::FloatMisc                    0      0.00%     81.14% # attempts to use FU when none available (Count)
system.cpu.statFuBusy::FloatSqrt                    0      0.00%     81.14% # attempts to use FU when none available (Count)
system.cpu.statFuBusy::SimdAdd                      0      0.00%     81.14% # attempts to use FU when none available (Count)
system.cpu.statFuBusy::SimdAddAcc                   0      0.00%     81.14% # attempts to use FU when none available (Count)
system.cpu.statFuBusy::SimdAlu                     18      2.10%     83.24% # attempts to use FU when none available (Count)
system.cpu.statFuBusy::SimdCmp                      0      0.00%     83.24% # attempts to use FU when none available (Count)
system.cpu.statFuBusy::SimdCvt                      2      0.23%     83.47% # attempts to use FU when none available (Count)
system.cpu.statFuBusy::SimdMisc                     2      0.23%     83.70% # attempts to use FU when none available (Count)
system.cpu.statFuBusy::SimdMult                     0      0.00%     83.70% # attempts to use FU when none available (Count)
system.cpu.statFuBusy::SimdMultAcc                  0      0.00%     83.70% # attempts to use FU when none available (Count)
system.cpu.statFuBusy::SimdShift                    2      0.23%     83.93% # attempts to use FU when none available (Count)
system.cpu.statFuBusy::SimdShiftAcc                 0      0.00%     83.93% # attempts to use FU when none available (Count)
system.cpu.statFuBusy::SimdDiv                      0      0.00%     83.93% # attempts to use FU when none available (Count)
system.cpu.statFuBusy::SimdSqrt                     0      0.00%     83.93% # attempts to use FU when none available (Count)
system.cpu.statFuBusy::SimdFloatAdd                 0      0.00%     83.93% # attempts to use FU when none available (Count)
system.cpu.statFuBusy::SimdFloatAlu                 0      0.00%     83.93% # attempts to use FU when none available (Count)
system.cpu.statFuBusy::SimdFloatCmp                 0      0.00%     83.93% # attempts to use FU when none available (Count)
system.cpu.statFuBusy::SimdFloatCvt                 0      0.00%     83.93% # attempts to use FU when none available (Count)
system.cpu.statFuBusy::SimdFloatDiv                 0      0.00%     83.93% # attempts to use FU when none available (Count)
system.cpu.statFuBusy::SimdFloatMisc                0      0.00%     83.93% # attempts to use FU when none available (Count)
system.cpu.statFuBusy::SimdFloatMult                0      0.00%     83.93% # attempts to use FU when none available (Count)
system.cpu.statFuBusy::SimdFloatMultAcc             0      0.00%     83.93% # attempts to use FU when none available (Count)
system.cpu.statFuBusy::SimdFloatSqrt                0      0.00%     83.93% # attempts to use FU when none available (Count)
system.cpu.statFuBusy::SimdReduceAdd                0      0.00%     83.93% # attempts to use FU when none available (Count)
system.cpu.statFuBusy::SimdReduceAlu                0      0.00%     83.93% # attempts to use FU when none available (Count)
system.cpu.statFuBusy::SimdReduceCmp                0      0.00%     83.93% # attempts to use FU when none available (Count)
system.cpu.statFuBusy::SimdFloatReduceAdd            0      0.00%     83.93% # attempts to use FU when none available (Count)
system.cpu.statFuBusy::SimdFloatReduceCmp            0      0.00%     83.93% # attempts to use FU when none available (Count)
system.cpu.statFuBusy::SimdAes                      0      0.00%     83.93% # attempts to use FU when none available (Count)
system.cpu.statFuBusy::SimdAesMix                   0      0.00%     83.93% # attempts to use FU when none available (Count)
system.cpu.statFuBusy::SimdSha1Hash                 0      0.00%     83.93% # attempts to use FU when none available (Count)
system.cpu.statFuBusy::SimdSha1Hash2                0      0.00%     83.93% # attempts to use FU when none available (Count)
system.cpu.statFuBusy::SimdSha256Hash               0      0.00%     83.93% # attempts to use FU when none available (Count)
system.cpu.statFuBusy::SimdSha256Hash2              0      0.00%     83.93% # attempts to use FU when none available (Count)
system.cpu.statFuBusy::SimdShaSigma2                0      0.00%     83.93% # attempts to use FU when none available (Count)
system.cpu.statFuBusy::SimdShaSigma3                0      0.00%     83.93% # attempts to use FU when none available (Count)
system.cpu.statFuBusy::SimdPredAlu                  0      0.00%     83.93% # attempts to use FU when none available (Count)
system.cpu.statFuBusy::MemRead                     85      9.90%     93.83% # attempts to use FU when none available (Count)
system.cpu.statFuBusy::MemWrite                    26      3.03%     96.86% # attempts to use FU when none available (Count)
system.cpu.statFuBusy::FloatMemRead                 7      0.81%     97.67% # attempts to use FU when none available (Count)
system.cpu.statFuBusy::FloatMemWrite               20      2.33%    100.00% # attempts to use FU when none available (Count)
system.cpu.statFuBusy::IprAccess                    0      0.00%    100.00% # attempts to use FU when none available (Count)
system.cpu.statFuBusy::InstPrefetch                 0      0.00%    100.00% # attempts to use FU when none available (Count)
system.cpu.statIssuedInstType_0::No_OpClass          960      1.53%      1.53% # Number of instructions issued per FU type, per thread (Count)
system.cpu.statIssuedInstType_0::IntAlu         47222     75.27%     76.80% # Number of instructions issued per FU type, per thread (Count)
system.cpu.statIssuedInstType_0::IntMult           18      0.03%     76.83% # Number of instructions issued per FU type, per thread (Count)
system.cpu.statIssuedInstType_0::IntDiv            46      0.07%     76.90% # Number of instructions issued per FU type, per thread (Count)
system.cpu.statIssuedInstType_0::FloatAdd          176      0.28%     77.18% # Number of instructions issued per FU type, per thread (Count)
system.cpu.statIssuedInstType_0::FloatCmp            0      0.00%     77.18% # Number of instructions issued per FU type, per thread (Count)
system.cpu.statIssuedInstType_0::FloatCvt            0      0.00%     77.18% # Number of instructions issued per FU type, per thread (Count)
system.cpu.statIssuedInstType_0::FloatMult            0      0.00%     77.18% # Number of instructions issued per FU type, per thread (Count)
system.cpu.statIssuedInstType_0::FloatMultAcc            0      0.00%     77.18% # Number of instructions issued per FU type, per thread (Count)
system.cpu.statIssuedInstType_0::FloatDiv            0      0.00%     77.18% # Number of instructions issued per FU type, per thread (Count)
system.cpu.statIssuedInstType_0::FloatMisc            0      0.00%     77.18% # Number of instructions issued per FU type, per thread (Count)
system.cpu.statIssuedInstType_0::FloatSqrt            0      0.00%     77.18% # Number of instructions issued per FU type, per thread (Count)
system.cpu.statIssuedInstType_0::SimdAdd          216      0.34%     77.53% # Number of instructions issued per FU type, per thread (Count)
system.cpu.statIssuedInstType_0::SimdAddAcc            0      0.00%     77.53% # Number of instructions issued per FU type, per thread (Count)
system.cpu.statIssuedInstType_0::SimdAlu          703      1.12%     78.65% # Number of instructions issued per FU type, per thread (Count)
system.cpu.statIssuedInstType_0::SimdCmp            0      0.00%     78.65% # Number of instructions issued per FU type, per thread (Count)
system.cpu.statIssuedInstType_0::SimdCvt          700      1.12%     79.77% # Number of instructions issued per FU type, per thread (Count)
system.cpu.statIssuedInstType_0::SimdMisc          627      1.00%     80.77% # Number of instructions issued per FU type, per thread (Count)
system.cpu.statIssuedInstType_0::SimdMult            0      0.00%     80.77% # Number of instructions issued per FU type, per thread (Count)
system.cpu.statIssuedInstType_0::SimdMultAcc            0      0.00%     80.77% # Number of instructions issued per FU type, per thread (Count)
system.cpu.statIssuedInstType_0::SimdShift          190      0.30%     81.07% # Number of instructions issued per FU type, per thread (Count)
system.cpu.statIssuedInstType_0::SimdShiftAcc            0      0.00%     81.07% # Number of instructions issued per FU type, per thread (Count)
system.cpu.statIssuedInstType_0::SimdDiv            0      0.00%     81.07% # Number of instructions issued per FU type, per thread (Count)
system.cpu.statIssuedInstType_0::SimdSqrt            0      0.00%     81.07% # Number of instructions issued per FU type, per thread (Count)
system.cpu.statIssuedInstType_0::SimdFloatAdd            0      0.00%     81.07% # Number of instructions issued per FU type, per thread (Count)
system.cpu.statIssuedInstType_0::SimdFloatAlu            0      0.00%     81.07% # Number of instructions issued per FU type, per thread (Count)
system.cpu.statIssuedInstType_0::SimdFloatCmp            0      0.00%     81.07% # Number of instructions issued per FU type, per thread (Count)
system.cpu.statIssuedInstType_0::SimdFloatCvt            0      0.00%     81.07% # Number of instructions issued per FU type, per thread (Count)
system.cpu.statIssuedInstType_0::SimdFloatDiv            0      0.00%     81.07% # Number of instructions issued per FU type, per thread (Count)
system.cpu.statIssuedInstType_0::SimdFloatMisc            0      0.00%     81.07% # Number of instructions issued per FU type, per thread (Count)
system.cpu.statIssuedInstType_0::SimdFloatMult            0      0.00%     81.07% # Number of instructions issued per FU type, per thread (Count)
system.cpu.statIssuedInstType_0::SimdFloatMultAcc            0      0.00%     81.07% # Number of instructions issued per FU type, per thread (Count)
system.cpu.statIssuedInstType_0::SimdFloatSqrt            0      0.00%     81.07% # Number of instructions issued per FU type, per thread (Count)
system.cpu.statIssuedInstType_0::SimdReduceAdd            0      0.00%     81.07% # Number of instructions issued per FU type, per thread (Count)
system.cpu.statIssuedInstType_0::SimdReduceAlu            0      0.00%     81.07% # Number of instructions issued per FU type, per thread (Count)
system.cpu.statIssuedInstType_0::SimdReduceCmp            0      0.00%     81.07% # Number of instructions issued per FU type, per thread (Count)
system.cpu.statIssuedInstType_0::SimdFloatReduceAdd            0      0.00%     81.07% # Number of instructions issued per FU type, per thread (Count)
system.cpu.statIssuedInstType_0::SimdFloatReduceCmp            0      0.00%     81.07% # Number of instructions issued per FU type, per thread (Count)
system.cpu.statIssuedInstType_0::SimdAes            0      0.00%     81.07% # Number of instructions issued per FU type, per thread (Count)
system.cpu.statIssuedInstType_0::SimdAesMix            0      0.00%     81.07% # Number of instructions issued per FU type, per thread (Count)
system.cpu.statIssuedInstType_0::SimdSha1Hash            0      0.00%     81.07% # Number of instructions issued per FU type, per thread (Count)
system.cpu.statIssuedInstType_0::SimdSha1Hash2            0      0.00%     81.07% # Number of instructions issued per FU type, per thread (Count)
system.cpu.statIssuedInstType_0::SimdSha256Hash            0      0.00%     81.07% # Number of instructions issued per FU type, per thread (Count)
system.cpu.statIssuedInstType_0::SimdSha256Hash2            0      0.00%     81.07% # Number of instructions issued per FU type, per thread (Count)
system.cpu.statIssuedInstType_0::SimdShaSigma2            0      0.00%     81.07% # Number of instructions issued per FU type, per thread (Count)
system.cpu.statIssuedInstType_0::SimdShaSigma3            0      0.00%     81.07% # Number of instructions issued per FU type, per thread (Count)
system.cpu.statIssuedInstType_0::SimdPredAlu            0      0.00%     81.07% # Number of instructions issued per FU type, per thread (Count)
system.cpu.statIssuedInstType_0::MemRead         6910     11.01%     92.08% # Number of instructions issued per FU type, per thread (Count)
system.cpu.statIssuedInstType_0::MemWrite         3345      5.33%     97.41% # Number of instructions issued per FU type, per thread (Count)
system.cpu.statIssuedInstType_0::FloatMemRead         1116      1.78%     99.19% # Number of instructions issued per FU type, per thread (Count)
system.cpu.statIssuedInstType_0::FloatMemWrite          506      0.81%    100.00% # Number of instructions issued per FU type, per thread (Count)
system.cpu.statIssuedInstType_0::IprAccess            0      0.00%    100.00% # Number of instructions issued per FU type, per thread (Count)
system.cpu.statIssuedInstType_0::InstPrefetch            0      0.00%    100.00% # Number of instructions issued per FU type, per thread (Count)
system.cpu.statIssuedInstType_0::total          62735                       # Number of instructions issued per FU type, per thread (Count)
system.cpu.issueRate                         0.627532                       # Inst issue rate ((Count/Cycle))
system.cpu.fuBusy                                 859                       # FU busy when requested (Count)
system.cpu.fuBusyRate                        0.013693                       # FU busy rate (busy events/executed inst) ((Count/Count))
system.cpu.intInstQueueReads                   185014                       # Number of integer instruction queue reads (Count)
system.cpu.intInstQueueWrites                   96335                       # Number of integer instruction queue writes (Count)
system.cpu.intInstQueueWakeupAccesses           55709                       # Number of integer instruction queue wakeup accesses (Count)
system.cpu.fpInstQueueReads                      8806                       # Number of floating instruction queue reads (Count)
system.cpu.fpInstQueueWrites                     8614                       # Number of floating instruction queue writes (Count)
system.cpu.fpInstQueueWakeupAccesses             4008                       # Number of floating instruction queue wakeup accesses (Count)
system.cpu.vecInstQueueReads                        0                       # Number of vector instruction queue reads (Count)
system.cpu.vecInstQueueWrites                       0                       # Number of vector instruction queue writes (Count)
system.cpu.vecInstQueueWakeupAccesses               0                       # Number of vector instruction queue wakeup accesses (Count)
system.cpu.intAluAccesses                       58215                       # Number of integer alu accesses (Count)
system.cpu.fpAluAccesses                         4419                       # Number of floating point alu accesses (Count)
system.cpu.vecAluAccesses                           0                       # Number of vector alu accesses (Count)
system.cpu.numInsts                             61134                       # Number of executed instructions (Count)
system.cpu.numLoadInsts                          7710                       # Number of load instructions executed (Count)
system.cpu.numSquashedInsts                      1601                       # Number of squashed instructions skipped in execute (Count)
system.cpu.numSwp                                   0                       # Number of swp insts executed (Count)
system.cpu.numNop                                   0                       # Number of nop insts executed (Count)
system.cpu.numRefs                              11420                       # Number of memory reference insts executed (Count)
system.cpu.numBranches                           6033                       # Number of branches executed (Count)
system.cpu.numStoreInsts                         3710                       # Number of stores executed (Count)
system.cpu.numRate                           0.611517                       # Inst execution rate ((Count/Cycle))
system.cpu.timesIdled                             421                       # Number of times that the entire CPU went into an idle state and unscheduled itself (Count)
system.cpu.idleCycles                           32687                       # Total number of cycles that the CPU has spent unscheduled due to idling (Cycle)
system.cpu.committedInsts                       19815                       # Number of Instructions Simulated (Count)
system.cpu.committedOps                         39457                       # Number of Ops (including micro ops) Simulated (Count)
system.cpu.cpi                               5.045218                       # CPI: Cycles Per Instruction ((Cycle/Count))
system.cpu.totalCpi                          5.045218                       # CPI: Total CPI of All Threads ((Cycle/Count))
system.cpu.ipc                               0.198207                       # IPC: Instructions Per Cycle ((Count/Cycle))
system.cpu.totalIpc                          0.198207                       # IPC: Total IPC of All Threads ((Count/Cycle))
system.cpu.intRegfileReads                      81400                       # Number of integer regfile reads (Count)
system.cpu.intRegfileWrites                     46191                       # Number of integer regfile writes (Count)
system.cpu.fpRegfileReads                        6144                       # Number of floating regfile reads (Count)
system.cpu.fpRegfileWrites                       3256                       # Number of floating regfile writes (Count)
system.cpu.ccRegfileReads                       32495                       # number of cc regfile reads (Count)
system.cpu.ccRegfileWrites                      19198                       # number of cc regfile writes (Count)
system.cpu.miscRegfileReads                     24674                       # number of misc regfile reads (Count)
system.cpu.MemDepUnit__0.insertedLoads           8481                       # Number of loads inserted to the mem dependence unit. (Count)
system.cpu.MemDepUnit__0.insertedStores          4396                       # Number of stores inserted to the mem dependence unit. (Count)
system.cpu.MemDepUnit__0.conflictingLoads           56                       # Number of conflicting loads. (Count)
system.cpu.MemDepUnit__0.conflictingStores           30                       # Number of conflicting stores. (Count)
system.cpu.MemDepUnit__1.insertedLoads              0                       # Number of loads inserted to the mem dependence unit. (Count)
system.cpu.MemDepUnit__1.insertedStores             0                       # Number of stores inserted to the mem dependence unit. (Count)
system.cpu.MemDepUnit__1.conflictingLoads            0                       # Number of conflicting loads. (Count)
system.cpu.MemDepUnit__1.conflictingStores            0                       # Number of conflicting stores. (Count)
system.cpu.MemDepUnit__2.insertedLoads              0                       # Number of loads inserted to the mem dependence unit. (Count)
system.cpu.MemDepUnit__2.insertedStores             0                       # Number of stores inserted to the mem dependence unit. (Count)
system.cpu.MemDepUnit__2.conflictingLoads            0                       # Number of conflicting loads. (Count)
system.cpu.MemDepUnit__2.conflictingStores            0                       # Number of conflicting stores. (Count)
system.cpu.MemDepUnit__3.insertedLoads              0                       # Number of loads inserted to the mem dependence unit. (Count)
system.cpu.MemDepUnit__3.insertedStores             0                       # Number of stores inserted to the mem dependence unit. (Count)
system.cpu.MemDepUnit__3.conflictingLoads            0                       # Number of conflicting loads. (Count)
system.cpu.MemDepUnit__3.conflictingStores            0                       # Number of conflicting stores. (Count)
system.cpu.branchPred.lookups                   10103                       # Number of BP lookups (Count)
system.cpu.branchPred.condPredicted              8190                       # Number of conditional branches predicted (Count)
system.cpu.branchPred.condIncorrect              1258                       # Number of conditional branches incorrect (Count)
system.cpu.branchPred.BTBLookups                 4114                       # Number of BTB lookups (Count)
system.cpu.branchPred.BTBHits                    2971                       # Number of BTB hits (Count)
system.cpu.branchPred.BTBHitRatio            0.722168                       # BTB Hit Ratio (Ratio)
system.cpu.branchPred.RASUsed                     540                       # Number of times the RAS was used to get a target. (Count)
system.cpu.branchPred.RASIncorrect                  0                       # Number of incorrect RAS predictions. (Count)
system.cpu.branchPred.indirectLookups             229                       # Number of indirect predictor lookups. (Count)
system.cpu.branchPred.indirectHits                 11                       # Number of indirect target hits. (Count)
system.cpu.branchPred.indirectMisses              218                       # Number of indirect misses. (Count)
system.cpu.branchPred.indirectMispredicted          101                       # Number of mispredicted indirect branches. (Count)
system.cpu.commit.commitSquashedInsts           32169                       # The number of squashed insts skipped by commit (Count)
system.cpu.commit.branchMispredicts               916                       # The number of times a branch was mispredicted (Count)
system.cpu.commit.numCommittedDist::samples        62583                       # Number of insts commited each cycle (Count)
system.cpu.commit.numCommittedDist::mean     0.630475                       # Number of insts commited each cycle (Count)
system.cpu.commit.numCommittedDist::stdev     1.658206                       # Number of insts commited each cycle (Count)
system.cpu.commit.numCommittedDist::underflows            0      0.00%      0.00% # Number of insts commited each cycle (Count)
system.cpu.commit.numCommittedDist::0           50565     80.80%     80.80% # Number of insts commited each cycle (Count)
system.cpu.commit.numCommittedDist::1            3532      5.64%     86.44% # Number of insts commited each cycle (Count)
system.cpu.commit.numCommittedDist::2            2138      3.42%     89.86% # Number of insts commited each cycle (Count)
system.cpu.commit.numCommittedDist::3            2471      3.95%     93.81% # Number of insts commited each cycle (Count)
system.cpu.commit.numCommittedDist::4             996      1.59%     95.40% # Number of insts commited each cycle (Count)
system.cpu.commit.numCommittedDist::5             609      0.97%     96.37% # Number of insts commited each cycle (Count)
system.cpu.commit.numCommittedDist::6             299      0.48%     96.85% # Number of insts commited each cycle (Count)
system.cpu.commit.numCommittedDist::7             371      0.59%     97.44% # Number of insts commited each cycle (Count)
system.cpu.commit.numCommittedDist::8            1602      2.56%    100.00% # Number of insts commited each cycle (Count)
system.cpu.commit.numCommittedDist::overflows            0      0.00%    100.00% # Number of insts commited each cycle (Count)
system.cpu.commit.numCommittedDist::min_value            0                       # Number of insts commited each cycle (Count)
system.cpu.commit.numCommittedDist::max_value            8                       # Number of insts commited each cycle (Count)
system.cpu.commit.numCommittedDist::total        62583                       # Number of insts commited each cycle (Count)
system.cpu.commit.instsCommitted                19815                       # Number of instructions committed (Count)
system.cpu.commit.opsCommitted                  39457                       # Number of ops (including micro ops) committed (Count)
system.cpu.commit.memRefs                        7263                       # Number of memory references committed (Count)
system.cpu.commit.loads                          4394                       # Number of loads committed (Count)
system.cpu.commit.amos                              0                       # Number of atomic instructions committed (Count)
system.cpu.commit.membars                           0                       # Number of memory barriers committed (Count)
system.cpu.commit.branches                       4499                       # Number of branches committed (Count)
system.cpu.commit.vectorInstructions                0                       # Number of committed Vector instructions. (Count)
system.cpu.commit.floating                       2002                       # Number of committed floating point instructions. (Count)
system.cpu.commit.integer                       37555                       # Number of committed integer instructions. (Count)
system.cpu.commit.functionCalls                   250                       # Number of function calls committed. (Count)
system.cpu.commit.committedInstType_0::No_OpClass          426      1.08%      1.08% # Class of committed instruction (Count)
system.cpu.commit.committedInstType_0::IntAlu        30519     77.35%     78.43% # Class of committed instruction (Count)
system.cpu.commit.committedInstType_0::IntMult           14      0.04%     78.46% # Class of committed instruction (Count)
system.cpu.commit.committedInstType_0::IntDiv           41      0.10%     78.57% # Class of committed instruction (Count)
system.cpu.commit.committedInstType_0::FloatAdd           80      0.20%     78.77% # Class of committed instruction (Count)
system.cpu.commit.committedInstType_0::FloatCmp            0      0.00%     78.77% # Class of committed instruction (Count)
system.cpu.commit.committedInstType_0::FloatCvt            0      0.00%     78.77% # Class of committed instruction (Count)
system.cpu.commit.committedInstType_0::FloatMult            0      0.00%     78.77% # Class of committed instruction (Count)
system.cpu.commit.committedInstType_0::FloatMultAcc            0      0.00%     78.77% # Class of committed instruction (Count)
system.cpu.commit.committedInstType_0::FloatDiv            0      0.00%     78.77% # Class of committed instruction (Count)
system.cpu.commit.committedInstType_0::FloatMisc            0      0.00%     78.77% # Class of committed instruction (Count)
system.cpu.commit.committedInstType_0::FloatSqrt            0      0.00%     78.77% # Class of committed instruction (Count)
system.cpu.commit.committedInstType_0::SimdAdd           86      0.22%     78.99% # Class of committed instruction (Count)
system.cpu.commit.committedInstType_0::SimdAddAcc            0      0.00%     78.99% # Class of committed instruction (Count)
system.cpu.commit.committedInstType_0::SimdAlu          311      0.79%     79.78% # Class of committed instruction (Count)
system.cpu.commit.committedInstType_0::SimdCmp            0      0.00%     79.78% # Class of committed instruction (Count)
system.cpu.commit.committedInstType_0::SimdCvt          280      0.71%     80.49% # Class of committed instruction (Count)
system.cpu.commit.committedInstType_0::SimdMisc          350      0.89%     81.37% # Class of committed instruction (Count)
system.cpu.commit.committedInstType_0::SimdMult            0      0.00%     81.37% # Class of committed instruction (Count)
system.cpu.commit.committedInstType_0::SimdMultAcc            0      0.00%     81.37% # Class of committed instruction (Count)
system.cpu.commit.committedInstType_0::SimdShift           87      0.22%     81.59% # Class of committed instruction (Count)
system.cpu.commit.committedInstType_0::SimdShiftAcc            0      0.00%     81.59% # Class of committed instruction (Count)
system.cpu.commit.committedInstType_0::SimdDiv            0      0.00%     81.59% # Class of committed instruction (Count)
system.cpu.commit.committedInstType_0::SimdSqrt            0      0.00%     81.59% # Class of committed instruction (Count)
system.cpu.commit.committedInstType_0::SimdFloatAdd            0      0.00%     81.59% # Class of committed instruction (Count)
system.cpu.commit.committedInstType_0::SimdFloatAlu            0      0.00%     81.59% # Class of committed instruction (Count)
system.cpu.commit.committedInstType_0::SimdFloatCmp            0      0.00%     81.59% # Class of committed instruction (Count)
system.cpu.commit.committedInstType_0::SimdFloatCvt            0      0.00%     81.59% # Class of committed instruction (Count)
system.cpu.commit.committedInstType_0::SimdFloatDiv            0      0.00%     81.59% # Class of committed instruction (Count)
system.cpu.commit.committedInstType_0::SimdFloatMisc            0      0.00%     81.59% # Class of committed instruction (Count)
system.cpu.commit.committedInstType_0::SimdFloatMult            0      0.00%     81.59% # Class of committed instruction (Count)
system.cpu.commit.committedInstType_0::SimdFloatMultAcc            0      0.00%     81.59% # Class of committed instruction (Count)
system.cpu.commit.committedInstType_0::SimdFloatSqrt            0      0.00%     81.59% # Class of committed instruction (Count)
system.cpu.commit.committedInstType_0::SimdReduceAdd            0      0.00%     81.59% # Class of committed instruction (Count)
system.cpu.commit.committedInstType_0::SimdReduceAlu            0      0.00%     81.59% # Class of committed instruction (Count)
system.cpu.commit.committedInstType_0::SimdReduceCmp            0      0.00%     81.59% # Class of committed instruction (Count)
system.cpu.commit.committedInstType_0::SimdFloatReduceAdd            0      0.00%     81.59% # Class of committed instruction (Count)
system.cpu.commit.committedInstType_0::SimdFloatReduceCmp            0      0.00%     81.59% # Class of committed instruction (Count)
system.cpu.commit.committedInstType_0::SimdAes            0      0.00%     81.59% # Class of committed instruction (Count)
system.cpu.commit.committedInstType_0::SimdAesMix            0      0.00%     81.59% # Class of committed instruction (Count)
system.cpu.commit.committedInstType_0::SimdSha1Hash            0      0.00%     81.59% # Class of committed instruction (Count)
system.cpu.commit.committedInstType_0::SimdSha1Hash2            0      0.00%     81.59% # Class of committed instruction (Count)
system.cpu.commit.committedInstType_0::SimdSha256Hash            0      0.00%     81.59% # Class of committed instruction (Count)
system.cpu.commit.committedInstType_0::SimdSha256Hash2            0      0.00%     81.59% # Class of committed instruction (Count)
system.cpu.commit.committedInstType_0::SimdShaSigma2            0      0.00%     81.59% # Class of committed instruction (Count)
system.cpu.commit.committedInstType_0::SimdShaSigma3            0      0.00%     81.59% # Class of committed instruction (Count)
system.cpu.commit.committedInstType_0::SimdPredAlu            0      0.00%     81.59% # Class of committed instruction (Count)
system.cpu.commit.committedInstType_0::MemRead         4066     10.30%     91.90% # Class of committed instruction (Count)
system.cpu.commit.committedInstType_0::MemWrite         2469      6.26%     98.15% # Class of committed instruction (Count)
system.cpu.commit.committedInstType_0::FloatMemRead          328      0.83%     98.99% # Class of committed instruction (Count)
system.cpu.commit.committedInstType_0::FloatMemWrite          400      1.01%    100.00% # Class of committed instruction (Count)
system.cpu.commit.committedInstType_0::IprAccess            0      0.00%    100.00% # Class of committed instruction (Count)
system.cpu.commit.committedInstType_0::InstPrefetch            0      0.00%    100.00% # Class of committed instruction (Count)
system.cpu.commit.committedInstType_0::total        39457                       # Class of committed instruction (Count)
system.cpu.commit.commitEligibleSamples          1602                       # number cycles where commit BW limit reached (Cycle)
system.cpu.dcache.demandHits::cpu.data           8523                       # number of demand (read+write) hits (Count)
system.cpu.dcache.demandHits::total              8523                       # number of demand (read+write) hits (Count)
system.cpu.dcache.overallHits::cpu.data          8523                       # number of overall hits (Count)
system.cpu.dcache.overallHits::total             8523                       # number of overall hits (Count)
system.cpu.dcache.demandMisses::cpu.data         1360                       # number of demand (read+write) misses (Count)
system.cpu.dcache.demandMisses::total            1360                       # number of demand (read+write) misses (Count)
system.cpu.dcache.overallMisses::cpu.data         1360                       # number of overall misses (Count)
system.cpu.dcache.overallMisses::total           1360                       # number of overall misses (Count)
system.cpu.dcache.demandMissLatency::cpu.data     72230499                       # number of demand (read+write) miss ticks (Tick)
system.cpu.dcache.demandMissLatency::total     72230499                       # number of demand (read+write) miss ticks (Tick)
system.cpu.dcache.overallMissLatency::cpu.data     72230499                       # number of overall miss ticks (Tick)
system.cpu.dcache.overallMissLatency::total     72230499                       # number of overall miss ticks (Tick)
system.cpu.dcache.demandAccesses::cpu.data         9883                       # number of demand (read+write) accesses (Count)
system.cpu.dcache.demandAccesses::total          9883                       # number of demand (read+write) accesses (Count)
system.cpu.dcache.overallAccesses::cpu.data         9883                       # number of overall (read+write) accesses (Count)
system.cpu.dcache.overallAccesses::total         9883                       # number of overall (read+write) accesses (Count)
system.cpu.dcache.demandMissRate::cpu.data     0.137610                       # miss rate for demand accesses (Ratio)
system.cpu.dcache.demandMissRate::total      0.137610                       # miss rate for demand accesses (Ratio)
system.cpu.dcache.overallMissRate::cpu.data     0.137610                       # miss rate for overall accesses (Ratio)
system.cpu.dcache.overallMissRate::total     0.137610                       # miss rate for overall accesses (Ratio)
system.cpu.dcache.demandAvgMissLatency::cpu.data 53110.661029                       # average overall miss latency ((Cycle/Count))
system.cpu.dcache.demandAvgMissLatency::total 53110.661029                       # average overall miss latency ((Cycle/Count))
system.cpu.dcache.overallAvgMissLatency::cpu.data 53110.661029                       # average overall miss latency ((Cycle/Count))
system.cpu.dcache.overallAvgMissLatency::total 53110.661029                       # average overall miss latency ((Cycle/Count))
system.cpu.dcache.blockedCycles::no_mshrs         1939                       # number of cycles access was blocked (Cycle)
system.cpu.dcache.blockedCycles::no_targets            0                       # number of cycles access was blocked (Cycle)
system.cpu.dcache.blockedCauses::no_mshrs           55                       # number of times access was blocked (Count)
system.cpu.dcache.blockedCauses::no_targets            0                       # number of times access was blocked (Count)
system.cpu.dcache.avgBlocked::no_mshrs      35.254545                       # average number of cycles each access was blocked ((Cycle/Count))
system.cpu.dcache.avgBlocked::no_targets          nan                       # average number of cycles each access was blocked ((Cycle/Count))
system.cpu.dcache.writebacks::writebacks           61                       # number of writebacks (Count)
system.cpu.dcache.writebacks::total                61                       # number of writebacks (Count)
system.cpu.dcache.demandMshrHits::cpu.data          796                       # number of demand (read+write) MSHR hits (Count)
system.cpu.dcache.demandMshrHits::total           796                       # number of demand (read+write) MSHR hits (Count)
system.cpu.dcache.overallMshrHits::cpu.data          796                       # number of overall MSHR hits (Count)
system.cpu.dcache.overallMshrHits::total          796                       # number of overall MSHR hits (Count)
system.cpu.dcache.demandMshrMisses::cpu.data          564                       # number of demand (read+write) MSHR misses (Count)
system.cpu.dcache.demandMshrMisses::total          564                       # number of demand (read+write) MSHR misses (Count)
system.cpu.dcache.overallMshrMisses::cpu.data          564                       # number of overall MSHR misses (Count)
system.cpu.dcache.overallMshrMisses::total          564                       # number of overall MSHR misses (Count)
system.cpu.dcache.demandMshrMissLatency::cpu.data     32699500                       # number of demand (read+write) MSHR miss ticks (Tick)
system.cpu.dcache.demandMshrMissLatency::total     32699500                       # number of demand (read+write) MSHR miss ticks (Tick)
system.cpu.dcache.overallMshrMissLatency::cpu.data     32699500                       # number of overall MSHR miss ticks (Tick)
system.cpu.dcache.overallMshrMissLatency::total     32699500                       # number of overall MSHR miss ticks (Tick)
system.cpu.dcache.demandMshrMissRate::cpu.data     0.057068                       # mshr miss ratio for demand accesses (Ratio)
system.cpu.dcache.demandMshrMissRate::total     0.057068                       # mshr miss ratio for demand accesses (Ratio)
system.cpu.dcache.overallMshrMissRate::cpu.data     0.057068                       # mshr miss ratio for overall accesses (Ratio)
system.cpu.dcache.overallMshrMissRate::total     0.057068                       # mshr miss ratio for overall accesses (Ratio)
system.cpu.dcache.demandAvgMshrMissLatency::cpu.data 57977.836879                       # average overall mshr miss latency ((Cycle/Count))
system.cpu.dcache.demandAvgMshrMissLatency::total 57977.836879                       # average overall mshr miss latency ((Cycle/Count))
system.cpu.dcache.overallAvgMshrMissLatency::cpu.data 57977.836879                       # average overall mshr miss latency ((Cycle/Count))
system.cpu.dcache.overallAvgMshrMissLatency::total 57977.836879                       # average overall mshr miss latency ((Cycle/Count))
system.cpu.dcache.replacements                    113                       # number of replacements (Count)
system.cpu.dcache.ReadReq.hits::cpu.data         5911                       # number of ReadReq hits (Count)
system.cpu.dcache.ReadReq.hits::total            5911                       # number of ReadReq hits (Count)
system.cpu.dcache.ReadReq.misses::cpu.data         1102                       # number of ReadReq misses (Count)
system.cpu.dcache.ReadReq.misses::total          1102                       # number of ReadReq misses (Count)
system.cpu.dcache.ReadReq.missLatency::cpu.data     57152500                       # number of ReadReq miss ticks (Tick)
system.cpu.dcache.ReadReq.missLatency::total     57152500                       # number of ReadReq miss ticks (Tick)
system.cpu.dcache.ReadReq.accesses::cpu.data         7013                       # number of ReadReq accesses(hits+misses) (Count)
system.cpu.dcache.ReadReq.accesses::total         7013                       # number of ReadReq accesses(hits+misses) (Count)
system.cpu.dcache.ReadReq.missRate::cpu.data     0.157137                       # miss rate for ReadReq accesses (Ratio)
system.cpu.dcache.ReadReq.missRate::total     0.157137                       # miss rate for ReadReq accesses (Ratio)
system.cpu.dcache.ReadReq.avgMissLatency::cpu.data 51862.522686                       # average ReadReq miss latency ((Tick/Count))
system.cpu.dcache.ReadReq.avgMissLatency::total 51862.522686                       # average ReadReq miss latency ((Tick/Count))
system.cpu.dcache.ReadReq.mshrHits::cpu.data          792                       # number of ReadReq MSHR hits (Count)
system.cpu.dcache.ReadReq.mshrHits::total          792                       # number of ReadReq MSHR hits (Count)
system.cpu.dcache.ReadReq.mshrMisses::cpu.data          310                       # number of ReadReq MSHR misses (Count)
system.cpu.dcache.ReadReq.mshrMisses::total          310                       # number of ReadReq MSHR misses (Count)
system.cpu.dcache.ReadReq.mshrMissLatency::cpu.data     18095000                       # number of ReadReq MSHR miss ticks (Tick)
system.cpu.dcache.ReadReq.mshrMissLatency::total     18095000                       # number of ReadReq MSHR miss ticks (Tick)
system.cpu.dcache.ReadReq.mshrMissRate::cpu.data     0.044204                       # mshr miss rate for ReadReq accesses (Ratio)
system.cpu.dcache.ReadReq.mshrMissRate::total     0.044204                       # mshr miss rate for ReadReq accesses (Ratio)
system.cpu.dcache.ReadReq.avgMshrMissLatency::cpu.data 58370.967742                       # average ReadReq mshr miss latency ((Tick/Count))
system.cpu.dcache.ReadReq.avgMshrMissLatency::total 58370.967742                       # average ReadReq mshr miss latency ((Tick/Count))
system.cpu.dcache.WriteReq.hits::cpu.data         2612                       # number of WriteReq hits (Count)
system.cpu.dcache.WriteReq.hits::total           2612                       # number of WriteReq hits (Count)
system.cpu.dcache.WriteReq.misses::cpu.data          258                       # number of WriteReq misses (Count)
system.cpu.dcache.WriteReq.misses::total          258                       # number of WriteReq misses (Count)
system.cpu.dcache.WriteReq.missLatency::cpu.data     15077999                       # number of WriteReq miss ticks (Tick)
system.cpu.dcache.WriteReq.missLatency::total     15077999                       # number of WriteReq miss ticks (Tick)
system.cpu.dcache.WriteReq.accesses::cpu.data         2870                       # number of WriteReq accesses(hits+misses) (Count)
system.cpu.dcache.WriteReq.accesses::total         2870                       # number of WriteReq accesses(hits+misses) (Count)
system.cpu.dcache.WriteReq.missRate::cpu.data     0.089895                       # miss rate for WriteReq accesses (Ratio)
system.cpu.dcache.WriteReq.missRate::total     0.089895                       # miss rate for WriteReq accesses (Ratio)
system.cpu.dcache.WriteReq.avgMissLatency::cpu.data 58441.856589                       # average WriteReq miss latency ((Tick/Count))
system.cpu.dcache.WriteReq.avgMissLatency::total 58441.856589                       # average WriteReq miss latency ((Tick/Count))
system.cpu.dcache.WriteReq.mshrHits::cpu.data            4                       # number of WriteReq MSHR hits (Count)
system.cpu.dcache.WriteReq.mshrHits::total            4                       # number of WriteReq MSHR hits (Count)
system.cpu.dcache.WriteReq.mshrMisses::cpu.data          254                       # number of WriteReq MSHR misses (Count)
system.cpu.dcache.WriteReq.mshrMisses::total          254                       # number of WriteReq MSHR misses (Count)
system.cpu.dcache.WriteReq.mshrMissLatency::cpu.data     14604500                       # number of WriteReq MSHR miss ticks (Tick)
system.cpu.dcache.WriteReq.mshrMissLatency::total     14604500                       # number of WriteReq MSHR miss ticks (Tick)
system.cpu.dcache.WriteReq.mshrMissRate::cpu.data     0.088502                       # mshr miss rate for WriteReq accesses (Ratio)
system.cpu.dcache.WriteReq.mshrMissRate::total     0.088502                       # mshr miss rate for WriteReq accesses (Ratio)
system.cpu.dcache.WriteReq.avgMshrMissLatency::cpu.data 57498.031496                       # average WriteReq mshr miss latency ((Tick/Count))
system.cpu.dcache.WriteReq.avgMshrMissLatency::total 57498.031496                       # average WriteReq mshr miss latency ((Tick/Count))
system.cpu.dcache.power_state.pwrStateResidencyTicks::UNDEFINED     49985000                       # Cumulative time (in ticks) in various power states (Tick)
system.cpu.dcache.tags.tagsInUse           278.770655                       # Average ticks per tags in use ((Tick/Count))
system.cpu.dcache.tags.totalRefs                 9087                       # Total number of references to valid blocks. (Count)
system.cpu.dcache.tags.sampledRefs                564                       # Sample count of references to valid blocks. (Count)
system.cpu.dcache.tags.avgRefs              16.111702                       # Average number of references to valid blocks. ((Count/Count))
system.cpu.dcache.tags.warmupTick              150000                       # The tick when the warmup percentage was hit. (Tick)
system.cpu.dcache.tags.occupancies::cpu.data   278.770655                       # Average occupied blocks per tick, per requestor ((Count/Tick))
system.cpu.dcache.tags.avgOccs::cpu.data     0.272237                       # Average percentage of cache occupancy ((Ratio/Tick))
system.cpu.dcache.tags.avgOccs::total        0.272237                       # Average percentage of cache occupancy ((Ratio/Tick))
system.cpu.dcache.tags.occupanciesTaskId::1024          451                       # Occupied blocks per task id (Count)
system.cpu.dcache.tags.ageTaskId_1024::0          112                       # Occupied blocks per task id, per block age (Count)
system.cpu.dcache.tags.ageTaskId_1024::1          339                       # Occupied blocks per task id, per block age (Count)
system.cpu.dcache.tags.ratioOccsTaskId::1024     0.440430                       # Ratio of occupied blocks and all blocks, per task id (Ratio)
system.cpu.dcache.tags.tagAccesses              20330                       # Number of tag accesses (Count)
system.cpu.dcache.tags.dataAccesses             20330                       # Number of data accesses (Count)
system.cpu.dcache.tags.power_state.pwrStateResidencyTicks::UNDEFINED     49985000                       # Cumulative time (in ticks) in various power states (Tick)
system.cpu.decode.idleCycles                    30639                       # Number of cycles decode is idle (Cycle)
system.cpu.decode.blockedCycles                 23750                       # Number of cycles decode is blocked (Cycle)
system.cpu.decode.runCycles                     10362                       # Number of cycles decode is running (Cycle)
system.cpu.decode.unblockCycles                  1535                       # Number of cycles decode is unblocking (Cycle)
system.cpu.decode.squashCycles                    998                       # Number of cycles decode is squashing (Cycle)
system.cpu.decode.branchResolved                 3040                       # Number of times decode resolved a branch (Count)
system.cpu.decode.branchMispred                   352                       # Number of times decode detected a branch misprediction (Count)
system.cpu.decode.decodedInsts                  80677                       # Number of instructions handled by decode (Count)
system.cpu.decode.squashedInsts                  1657                       # Number of squashed instructions handled by decode (Count)
system.cpu.dtb_walker_cache.blockedCycles::no_mshrs            0                       # number of cycles access was blocked (Cycle)
system.cpu.dtb_walker_cache.blockedCycles::no_targets            0                       # number of cycles access was blocked (Cycle)
system.cpu.dtb_walker_cache.blockedCauses::no_mshrs            0                       # number of times access was blocked (Count)
system.cpu.dtb_walker_cache.blockedCauses::no_targets            0                       # number of times access was blocked (Count)
system.cpu.dtb_walker_cache.avgBlocked::no_mshrs          nan                       # average number of cycles each access was blocked ((Cycle/Count))
system.cpu.dtb_walker_cache.avgBlocked::no_targets          nan                       # average number of cycles each access was blocked ((Cycle/Count))
system.cpu.dtb_walker_cache.replacements            0                       # number of replacements (Count)
system.cpu.dtb_walker_cache.power_state.pwrStateResidencyTicks::UNDEFINED     49985000                       # Cumulative time (in ticks) in various power states (Tick)
system.cpu.dtb_walker_cache.tags.tagsInUse            0                       # Average ticks per tags in use ((Tick/Count))
system.cpu.dtb_walker_cache.tags.totalRefs            0                       # Total number of references to valid blocks. (Count)
system.cpu.dtb_walker_cache.tags.sampledRefs            0                       # Sample count of references to valid blocks. (Count)
system.cpu.dtb_walker_cache.tags.avgRefs          nan                       # Average number of references to valid blocks. ((Count/Count))
system.cpu.dtb_walker_cache.tags.warmupTick            0                       # The tick when the warmup percentage was hit. (Tick)
system.cpu.dtb_walker_cache.tags.tagAccesses            0                       # Number of tag accesses (Count)
system.cpu.dtb_walker_cache.tags.dataAccesses            0                       # Number of data accesses (Count)
system.cpu.dtb_walker_cache.tags.power_state.pwrStateResidencyTicks::UNDEFINED     49985000                       # Cumulative time (in ticks) in various power states (Tick)
system.cpu.fetch.icacheStallCycles              32836                       # Number of cycles fetch is stalled on an Icache miss (Cycle)
system.cpu.fetch.insts                          45409                       # Number of instructions fetch has processed (Count)
system.cpu.fetch.branches                       10103                       # Number of branches that fetch encountered (Count)
system.cpu.fetch.predictedBranches               3522                       # Number of branches that fetch has predicted taken (Count)
system.cpu.fetch.cycles                         33108                       # Number of cycles fetch has run and was not squashing or blocked (Cycle)
system.cpu.fetch.squashCycles                    2680                       # Number of cycles fetch has spent squashing (Cycle)
system.cpu.fetch.cacheLines                      6112                       # Number of cache lines fetched (Count)
system.cpu.fetch.icacheSquashes                   698                       # Number of outstanding Icache misses that were squashed (Count)
system.cpu.fetch.nisnDist::samples              67284                       # Number of instructions fetched each cycle (Total) (Count)
system.cpu.fetch.nisnDist::mean              1.339471                       # Number of instructions fetched each cycle (Total) (Count)
system.cpu.fetch.nisnDist::stdev             2.809740                       # Number of instructions fetched each cycle (Total) (Count)
system.cpu.fetch.nisnDist::underflows               0      0.00%      0.00% # Number of instructions fetched each cycle (Total) (Count)
system.cpu.fetch.nisnDist::0                    53393     79.35%     79.35% # Number of instructions fetched each cycle (Total) (Count)
system.cpu.fetch.nisnDist::1                      617      0.92%     80.27% # Number of instructions fetched each cycle (Total) (Count)
system.cpu.fetch.nisnDist::2                      570      0.85%     81.12% # Number of instructions fetched each cycle (Total) (Count)
system.cpu.fetch.nisnDist::3                      689      1.02%     82.14% # Number of instructions fetched each cycle (Total) (Count)
system.cpu.fetch.nisnDist::4                     1137      1.69%     83.83% # Number of instructions fetched each cycle (Total) (Count)
system.cpu.fetch.nisnDist::5                     1003      1.49%     85.32% # Number of instructions fetched each cycle (Total) (Count)
system.cpu.fetch.nisnDist::6                      730      1.08%     86.41% # Number of instructions fetched each cycle (Total) (Count)
system.cpu.fetch.nisnDist::7                      802      1.19%     87.60% # Number of instructions fetched each cycle (Total) (Count)
system.cpu.fetch.nisnDist::8                     8343     12.40%    100.00% # Number of instructions fetched each cycle (Total) (Count)
system.cpu.fetch.nisnDist::overflows                0      0.00%    100.00% # Number of instructions fetched each cycle (Total) (Count)
system.cpu.fetch.nisnDist::min_value                0                       # Number of instructions fetched each cycle (Total) (Count)
system.cpu.fetch.nisnDist::max_value                8                       # Number of instructions fetched each cycle (Total) (Count)
system.cpu.fetch.nisnDist::total                67284                       # Number of instructions fetched each cycle (Total) (Count)
system.cpu.fetch.branchRate                  0.101059                       # Number of branch fetches per cycle (Ratio)
system.cpu.fetch.rate                        0.454222                       # Number of inst fetches per cycle ((Count/Cycle))
system.cpu.icache.demandHits::cpu.inst           5086                       # number of demand (read+write) hits (Count)
system.cpu.icache.demandHits::total              5086                       # number of demand (read+write) hits (Count)
system.cpu.icache.overallHits::cpu.inst          5086                       # number of overall hits (Count)
system.cpu.icache.overallHits::total             5086                       # number of overall hits (Count)
system.cpu.icache.demandMisses::cpu.inst         1026                       # number of demand (read+write) misses (Count)
system.cpu.icache.demandMisses::total            1026                       # number of demand (read+write) misses (Count)
system.cpu.icache.overallMisses::cpu.inst         1026                       # number of overall misses (Count)
system.cpu.icache.overallMisses::total           1026                       # number of overall misses (Count)
system.cpu.icache.demandMissLatency::cpu.inst     56341000                       # number of demand (read+write) miss ticks (Tick)
system.cpu.icache.demandMissLatency::total     56341000                       # number of demand (read+write) miss ticks (Tick)
system.cpu.icache.overallMissLatency::cpu.inst     56341000                       # number of overall miss ticks (Tick)
system.cpu.icache.overallMissLatency::total     56341000                       # number of overall miss ticks (Tick)
system.cpu.icache.demandAccesses::cpu.inst         6112                       # number of demand (read+write) accesses (Count)
system.cpu.icache.demandAccesses::total          6112                       # number of demand (read+write) accesses (Count)
system.cpu.icache.overallAccesses::cpu.inst         6112                       # number of overall (read+write) accesses (Count)
system.cpu.icache.overallAccesses::total         6112                       # number of overall (read+write) accesses (Count)
system.cpu.icache.demandMissRate::cpu.inst     0.167866                       # miss rate for demand accesses (Ratio)
system.cpu.icache.demandMissRate::total      0.167866                       # miss rate for demand accesses (Ratio)
system.cpu.icache.overallMissRate::cpu.inst     0.167866                       # miss rate for overall accesses (Ratio)
system.cpu.icache.overallMissRate::total     0.167866                       # miss rate for overall accesses (Ratio)
system.cpu.icache.demandAvgMissLatency::cpu.inst 54913.255361                       # average overall miss latency ((Cycle/Count))
system.cpu.icache.demandAvgMissLatency::total 54913.255361                       # average overall miss latency ((Cycle/Count))
system.cpu.icache.overallAvgMissLatency::cpu.inst 54913.255361                       # average overall miss latency ((Cycle/Count))
system.cpu.icache.overallAvgMissLatency::total 54913.255361                       # average overall miss latency ((Cycle/Count))
system.cpu.icache.blockedCycles::no_mshrs          140                       # number of cycles access was blocked (Cycle)
system.cpu.icache.blockedCycles::no_targets            0                       # number of cycles access was blocked (Cycle)
system.cpu.icache.blockedCauses::no_mshrs            2                       # number of times access was blocked (Count)
system.cpu.icache.blockedCauses::no_targets            0                       # number of times access was blocked (Count)
system.cpu.icache.avgBlocked::no_mshrs             70                       # average number of cycles each access was blocked ((Cycle/Count))
system.cpu.icache.avgBlocked::no_targets          nan                       # average number of cycles each access was blocked ((Cycle/Count))
system.cpu.icache.writebacks::writebacks           72                       # number of writebacks (Count)
system.cpu.icache.writebacks::total                72                       # number of writebacks (Count)
system.cpu.icache.demandMshrHits::cpu.inst          298                       # number of demand (read+write) MSHR hits (Count)
system.cpu.icache.demandMshrHits::total           298                       # number of demand (read+write) MSHR hits (Count)
system.cpu.icache.overallMshrHits::cpu.inst          298                       # number of overall MSHR hits (Count)
system.cpu.icache.overallMshrHits::total          298                       # number of overall MSHR hits (Count)
system.cpu.icache.demandMshrMisses::cpu.inst          728                       # number of demand (read+write) MSHR misses (Count)
system.cpu.icache.demandMshrMisses::total          728                       # number of demand (read+write) MSHR misses (Count)
system.cpu.icache.overallMshrMisses::cpu.inst          728                       # number of overall MSHR misses (Count)
system.cpu.icache.overallMshrMisses::total          728                       # number of overall MSHR misses (Count)
system.cpu.icache.demandMshrMissLatency::cpu.inst     42530000                       # number of demand (read+write) MSHR miss ticks (Tick)
system.cpu.icache.demandMshrMissLatency::total     42530000                       # number of demand (read+write) MSHR miss ticks (Tick)
system.cpu.icache.overallMshrMissLatency::cpu.inst     42530000                       # number of overall MSHR miss ticks (Tick)
system.cpu.icache.overallMshrMissLatency::total     42530000                       # number of overall MSHR miss ticks (Tick)
system.cpu.icache.demandMshrMissRate::cpu.inst     0.119110                       # mshr miss ratio for demand accesses (Ratio)
system.cpu.icache.demandMshrMissRate::total     0.119110                       # mshr miss ratio for demand accesses (Ratio)
system.cpu.icache.overallMshrMissRate::cpu.inst     0.119110                       # mshr miss ratio for overall accesses (Ratio)
system.cpu.icache.overallMshrMissRate::total     0.119110                       # mshr miss ratio for overall accesses (Ratio)
system.cpu.icache.demandAvgMshrMissLatency::cpu.inst 58420.329670                       # average overall mshr miss latency ((Cycle/Count))
system.cpu.icache.demandAvgMshrMissLatency::total 58420.329670                       # average overall mshr miss latency ((Cycle/Count))
system.cpu.icache.overallAvgMshrMissLatency::cpu.inst 58420.329670                       # average overall mshr miss latency ((Cycle/Count))
system.cpu.icache.overallAvgMshrMissLatency::total 58420.329670                       # average overall mshr miss latency ((Cycle/Count))
system.cpu.icache.replacements                     72                       # number of replacements (Count)
system.cpu.icache.ReadReq.hits::cpu.inst         5086                       # number of ReadReq hits (Count)
system.cpu.icache.ReadReq.hits::total            5086                       # number of ReadReq hits (Count)
system.cpu.icache.ReadReq.misses::cpu.inst         1026                       # number of ReadReq misses (Count)
system.cpu.icache.ReadReq.misses::total          1026                       # number of ReadReq misses (Count)
system.cpu.icache.ReadReq.missLatency::cpu.inst     56341000                       # number of ReadReq miss ticks (Tick)
system.cpu.icache.ReadReq.missLatency::total     56341000                       # number of ReadReq miss ticks (Tick)
system.cpu.icache.ReadReq.accesses::cpu.inst         6112                       # number of ReadReq accesses(hits+misses) (Count)
system.cpu.icache.ReadReq.accesses::total         6112                       # number of ReadReq accesses(hits+misses) (Count)
system.cpu.icache.ReadReq.missRate::cpu.inst     0.167866                       # miss rate for ReadReq accesses (Ratio)
system.cpu.icache.ReadReq.missRate::total     0.167866                       # miss rate for ReadReq accesses (Ratio)
system.cpu.icache.ReadReq.avgMissLatency::cpu.inst 54913.255361                       # average ReadReq miss latency ((Tick/Count))
system.cpu.icache.ReadReq.avgMissLatency::total 54913.255361                       # average ReadReq miss latency ((Tick/Count))
system.cpu.icache.ReadReq.mshrHits::cpu.inst          298                       # number of ReadReq MSHR hits (Count)
system.cpu.icache.ReadReq.mshrHits::total          298                       # number of ReadReq MSHR hits (Count)
system.cpu.icache.ReadReq.mshrMisses::cpu.inst          728                       # number of ReadReq MSHR misses (Count)
system.cpu.icache.ReadReq.mshrMisses::total          728                       # number of ReadReq MSHR misses (Count)
system.cpu.icache.ReadReq.mshrMissLatency::cpu.inst     42530000                       # number of ReadReq MSHR miss ticks (Tick)
system.cpu.icache.ReadReq.mshrMissLatency::total     42530000                       # number of ReadReq MSHR miss ticks (Tick)
system.cpu.icache.ReadReq.mshrMissRate::cpu.inst     0.119110                       # mshr miss rate for ReadReq accesses (Ratio)
system.cpu.icache.ReadReq.mshrMissRate::total     0.119110                       # mshr miss rate for ReadReq accesses (Ratio)
system.cpu.icache.ReadReq.avgMshrMissLatency::cpu.inst 58420.329670                       # average ReadReq mshr miss latency ((Tick/Count))
system.cpu.icache.ReadReq.avgMshrMissLatency::total 58420.329670                       # average ReadReq mshr miss latency ((Tick/Count))
system.cpu.icache.power_state.pwrStateResidencyTicks::UNDEFINED     49985000                       # Cumulative time (in ticks) in various power states (Tick)
system.cpu.icache.tags.tagsInUse           382.215530                       # Average ticks per tags in use ((Tick/Count))
system.cpu.icache.tags.totalRefs                 5814                       # Total number of references to valid blocks. (Count)
system.cpu.icache.tags.sampledRefs                728                       # Sample count of references to valid blocks. (Count)
system.cpu.icache.tags.avgRefs               7.986264                       # Average number of references to valid blocks. ((Count/Count))
system.cpu.icache.tags.warmupTick               77000                       # The tick when the warmup percentage was hit. (Tick)
system.cpu.icache.tags.occupancies::cpu.inst   382.215530                       # Average occupied blocks per tick, per requestor ((Count/Tick))
system.cpu.icache.tags.avgOccs::cpu.inst     0.373257                       # Average percentage of cache occupancy ((Ratio/Tick))
system.cpu.icache.tags.avgOccs::total        0.373257                       # Average percentage of cache occupancy ((Ratio/Tick))
system.cpu.icache.tags.occupanciesTaskId::1024          656                       # Occupied blocks per task id (Count)
system.cpu.icache.tags.ageTaskId_1024::0           74                       # Occupied blocks per task id, per block age (Count)
system.cpu.icache.tags.ageTaskId_1024::1          582                       # Occupied blocks per task id, per block age (Count)
system.cpu.icache.tags.ratioOccsTaskId::1024     0.640625                       # Ratio of occupied blocks and all blocks, per task id (Ratio)
system.cpu.icache.tags.tagAccesses              12952                       # Number of tag accesses (Count)
system.cpu.icache.tags.dataAccesses             12952                       # Number of data accesses (Count)
system.cpu.icache.tags.power_state.pwrStateResidencyTicks::UNDEFINED     49985000                       # Cumulative time (in ticks) in various power states (Tick)
system.cpu.iew.idleCycles                           0                       # Number of cycles IEW is idle (Cycle)
system.cpu.iew.squashCycles                       998                       # Number of cycles IEW is squashing (Cycle)
system.cpu.iew.blockCycles                       9687                       # Number of cycles IEW is blocking (Cycle)
system.cpu.iew.unblockCycles                     1285                       # Number of cycles IEW is unblocking (Cycle)
system.cpu.iew.dispatchedInsts                  72184                       # Number of instructions dispatched to IQ (Count)
system.cpu.iew.dispSquashedInsts                  179                       # Number of squashed instructions skipped by dispatch (Count)
system.cpu.iew.dispLoadInsts                     8481                       # Number of dispatched load instructions (Count)
system.cpu.iew.dispStoreInsts                    4396                       # Number of dispatched store instructions (Count)
system.cpu.iew.dispNonSpecInsts                     1                       # Number of dispatched non-speculative instructions (Count)
system.cpu.iew.iqFullEvents                       114                       # Number of times the IQ has become full, causing a stall (Count)
system.cpu.iew.lsqFullEvents                     1113                       # Number of times the LSQ has become full, causing a stall (Count)
system.cpu.iew.memOrderViolationEvents             49                       # Number of memory order violations (Count)
system.cpu.iew.predictedTakenIncorrect            149                       # Number of branches that were predicted taken incorrectly (Count)
system.cpu.iew.predictedNotTakenIncorrect          983                       # Number of branches that were predicted not taken incorrectly (Count)
system.cpu.iew.branchMispredicts                 1132                       # Number of branch mispredicts detected at execute (Count)
system.cpu.iew.instsToCommit                    60108                       # Cumulative count of insts sent to commit (Count)
system.cpu.iew.writebackCount                   59717                       # Cumulative count of insts written-back (Count)
system.cpu.iew.producerInst                     42999                       # Number of instructions producing a value (Count)
system.cpu.iew.consumerInst                     71087                       # Number of instructions consuming a value (Count)
system.cpu.iew.wbRate                        0.597343                       # Insts written-back per cycle ((Count/Cycle))
system.cpu.iew.wbFanout                      0.604879                       # Average fanout of values written-back ((Count/Count))
system.cpu.interrupts.clk_domain.clock           8000                       # Clock period in ticks (Tick)
system.cpu.itb_walker_cache.blockedCycles::no_mshrs            0                       # number of cycles access was blocked (Cycle)
system.cpu.itb_walker_cache.blockedCycles::no_targets            0                       # number of cycles access was blocked (Cycle)
system.cpu.itb_walker_cache.blockedCauses::no_mshrs            0                       # number of times access was blocked (Count)
system.cpu.itb_walker_cache.blockedCauses::no_targets            0                       # number of times access was blocked (Count)
system.cpu.itb_walker_cache.avgBlocked::no_mshrs          nan                       # average number of cycles each access was blocked ((Cycle/Count))
system.cpu.itb_walker_cache.avgBlocked::no_targets          nan                       # average number of cycles each access was blocked ((Cycle/Count))
system.cpu.itb_walker_cache.replacements            0                       # number of replacements (Count)
system.cpu.itb_walker_cache.power_state.pwrStateResidencyTicks::UNDEFINED     49985000                       # Cumulative time (in ticks) in various power states (Tick)
system.cpu.itb_walker_cache.tags.tagsInUse            0                       # Average ticks per tags in use ((Tick/Count))
system.cpu.itb_walker_cache.tags.totalRefs            0                       # Total number of references to valid blocks. (Count)
system.cpu.itb_walker_cache.tags.sampledRefs            0                       # Sample count of references to valid blocks. (Count)
system.cpu.itb_walker_cache.tags.avgRefs          nan                       # Average number of references to valid blocks. ((Count/Count))
system.cpu.itb_walker_cache.tags.warmupTick            0                       # The tick when the warmup percentage was hit. (Tick)
system.cpu.itb_walker_cache.tags.tagAccesses            0                       # Number of tag accesses (Count)
system.cpu.itb_walker_cache.tags.dataAccesses            0                       # Number of data accesses (Count)
system.cpu.itb_walker_cache.tags.power_state.pwrStateResidencyTicks::UNDEFINED     49985000                       # Cumulative time (in ticks) in various power states (Tick)
system.cpu.lsq0.forwLoads                         377                       # Number of loads that had data forwarded from stores (Count)
system.cpu.lsq0.squashedLoads                    4087                       # Number of loads squashed (Count)
system.cpu.lsq0.ignoredResponses                    7                       # Number of memory responses ignored because the instruction is squashed (Count)
system.cpu.lsq0.memOrderViolation                  49                       # Number of memory ordering violations (Count)
system.cpu.lsq0.squashedStores                   1527                       # Number of stores squashed (Count)
system.cpu.lsq0.rescheduledLoads                    1                       # Number of loads that were rescheduled (Count)
system.cpu.lsq0.blockedByCache                     45                       # Number of times an access to memory failed due to the cache being blocked (Count)
system.cpu.lsq0.loadToUse::samples               4394                       # Distribution of cycle latency between the first time a load is issued and its completion (Unspecified)
system.cpu.lsq0.loadToUse::mean             22.092399                       # Distribution of cycle latency between the first time a load is issued and its completion (Unspecified)
system.cpu.lsq0.loadToUse::stdev            42.224074                       # Distribution of cycle latency between the first time a load is issued and its completion (Unspecified)
system.cpu.lsq0.loadToUse::0-9                   3607     82.09%     82.09% # Distribution of cycle latency between the first time a load is issued and its completion (Unspecified)
system.cpu.lsq0.loadToUse::10-19                   16      0.36%     82.45% # Distribution of cycle latency between the first time a load is issued and its completion (Unspecified)
system.cpu.lsq0.loadToUse::20-29                    5      0.11%     82.57% # Distribution of cycle latency between the first time a load is issued and its completion (Unspecified)
system.cpu.lsq0.loadToUse::30-39                    3      0.07%     82.64% # Distribution of cycle latency between the first time a load is issued and its completion (Unspecified)
system.cpu.lsq0.loadToUse::40-49                   16      0.36%     83.00% # Distribution of cycle latency between the first time a load is issued and its completion (Unspecified)
system.cpu.lsq0.loadToUse::50-59                    5      0.11%     83.11% # Distribution of cycle latency between the first time a load is issued and its completion (Unspecified)
system.cpu.lsq0.loadToUse::60-69                   10      0.23%     83.34% # Distribution of cycle latency between the first time a load is issued and its completion (Unspecified)
system.cpu.lsq0.loadToUse::70-79                   10      0.23%     83.57% # Distribution of cycle latency between the first time a load is issued and its completion (Unspecified)
system.cpu.lsq0.loadToUse::80-89                   19      0.43%     84.00% # Distribution of cycle latency between the first time a load is issued and its completion (Unspecified)
system.cpu.lsq0.loadToUse::90-99                   73      1.66%     85.66% # Distribution of cycle latency between the first time a load is issued and its completion (Unspecified)
system.cpu.lsq0.loadToUse::100-109                323      7.35%     93.01% # Distribution of cycle latency between the first time a load is issued and its completion (Unspecified)
system.cpu.lsq0.loadToUse::110-119                162      3.69%     96.70% # Distribution of cycle latency between the first time a load is issued and its completion (Unspecified)
system.cpu.lsq0.loadToUse::120-129                 18      0.41%     97.11% # Distribution of cycle latency between the first time a load is issued and its completion (Unspecified)
system.cpu.lsq0.loadToUse::130-139                 33      0.75%     97.86% # Distribution of cycle latency between the first time a load is issued and its completion (Unspecified)
[...]
system.mem_ctrls.dram.bwWrite::total         78103431                       # Write bandwidth from this memory ((Byte/Second))
system.mem_ctrls.dram.bwTotal::writebacks     78103431                       # Total bandwidth to/from this memory ((Byte/Second))
system.mem_ctrls.dram.bwTotal::cpu.inst     932119636                       # Total bandwidth to/from this memory ((Byte/Second))
system.mem_ctrls.dram.bwTotal::cpu.data     722136641                       # Total bandwidth to/from this memory ((Byte/Second))
system.mem_ctrls.dram.bwTotal::total       1732359708                       # Total bandwidth to/from this memory ((Byte/Second))
system.mem_ctrls.dram.readBursts                 1270                       # Number of DRAM read bursts (Count)
system.mem_ctrls.dram.writeBursts                 112                       # Number of DRAM write bursts (Count)
system.mem_ctrls.dram.perBankRdBursts::0           74                       # Per bank write bursts (Count)
system.mem_ctrls.dram.perBankRdBursts::1          102                       # Per bank write bursts (Count)
system.mem_ctrls.dram.perBankRdBursts::2           27                       # Per bank write bursts (Count)
system.mem_ctrls.dram.perBankRdBursts::3            3                       # Per bank write bursts (Count)
system.mem_ctrls.dram.perBankRdBursts::4           35                       # Per bank write bursts (Count)
system.mem_ctrls.dram.perBankRdBursts::5           59                       # Per bank write bursts (Count)
system.mem_ctrls.dram.perBankRdBursts::6           80                       # Per bank write bursts (Count)
system.mem_ctrls.dram.perBankRdBursts::7          128                       # Per bank write bursts (Count)
system.mem_ctrls.dram.perBankRdBursts::8           51                       # Per bank write bursts (Count)
system.mem_ctrls.dram.perBankRdBursts::9          131                       # Per bank write bursts (Count)
system.mem_ctrls.dram.perBankRdBursts::10           68                       # Per bank write bursts (Count)
system.mem_ctrls.dram.perBankRdBursts::11          143                       # Per bank write bursts (Count)
system.mem_ctrls.dram.perBankRdBursts::12          106                       # Per bank write bursts (Count)
system.mem_ctrls.dram.perBankRdBursts::13           50                       # Per bank write bursts (Count)
system.mem_ctrls.dram.perBankRdBursts::14           92                       # Per bank write bursts (Count)
system.mem_ctrls.dram.perBankRdBursts::15          121                       # Per bank write bursts (Count)
system.mem_ctrls.dram.perBankWrBursts::0           14                       # Per bank write bursts (Count)
system.mem_ctrls.dram.perBankWrBursts::1            2                       # Per bank write bursts (Count)
system.mem_ctrls.dram.perBankWrBursts::2            0                       # Per bank write bursts (Count)
system.mem_ctrls.dram.perBankWrBursts::3            0                       # Per bank write bursts (Count)
system.mem_ctrls.dram.perBankWrBursts::4            0                       # Per bank write bursts (Count)
system.mem_ctrls.dram.perBankWrBursts::5            7                       # Per bank write bursts (Count)
system.mem_ctrls.dram.perBankWrBursts::6           17                       # Per bank write bursts (Count)
system.mem_ctrls.dram.perBankWrBursts::7           25                       # Per bank write bursts (Count)
system.mem_ctrls.dram.perBankWrBursts::8            6                       # Per bank write bursts (Count)
system.mem_ctrls.dram.perBankWrBursts::9            7                       # Per bank write bursts (Count)
system.mem_ctrls.dram.perBankWrBursts::10            0                       # Per bank write bursts (Count)
system.mem_ctrls.dram.perBankWrBursts::11           16                       # Per bank write bursts (Count)
system.mem_ctrls.dram.perBankWrBursts::12            3                       # Per bank write bursts (Count)
system.mem_ctrls.dram.perBankWrBursts::13            7                       # Per bank write bursts (Count)
system.mem_ctrls.dram.perBankWrBursts::14            8                       # Per bank write bursts (Count)
system.mem_ctrls.dram.perBankWrBursts::15            0                       # Per bank write bursts (Count)
system.mem_ctrls.dram.totQLat                10730750                       # Total ticks spent queuing (Tick)
system.mem_ctrls.dram.totBusLat               6350000                       # Total ticks spent in databus transfers (Tick)
system.mem_ctrls.dram.totMemAccLat           34543250                       # Total ticks spent from burst creation until serviced by the DRAM (Tick)
system.mem_ctrls.dram.avgQLat                 8449.41                       # Average queueing delay per DRAM burst ((Tick/Count))
system.mem_ctrls.dram.avgBusLat               5000.00                       # Average bus latency per DRAM burst ((Tick/Count))
system.mem_ctrls.dram.avgMemAccLat           27199.41                       # Average memory access latency per DRAM burst ((Tick/Count))
system.mem_ctrls.dram.readRowHits                1057                       # Number of row buffer hits during reads (Count)
system.mem_ctrls.dram.writeRowHits                 89                       # Number of row buffer hits during writes (Count)
system.mem_ctrls.dram.readRowHitRate            83.23                       # Row buffer hit rate for reads (Ratio)
system.mem_ctrls.dram.writeRowHitRate           79.46                       # Row buffer hit rate for writes (Ratio)
system.mem_ctrls.dram.bytesPerActivate::samples          227                       # Bytes accessed per row activation (Byte)
system.mem_ctrls.dram.bytesPerActivate::mean   380.616740                       # Bytes accessed per row activation (Byte)
system.mem_ctrls.dram.bytesPerActivate::gmean   232.387474                       # Bytes accessed per row activation (Byte)
system.mem_ctrls.dram.bytesPerActivate::stdev   353.614720                       # Bytes accessed per row activation (Byte)
system.mem_ctrls.dram.bytesPerActivate::0-127           64     28.19%     28.19% # Bytes accessed per row activation (Byte)
system.mem_ctrls.dram.bytesPerActivate::128-255           51     22.47%     50.66% # Bytes accessed per row activation (Byte)
system.mem_ctrls.dram.bytesPerActivate::256-383           27     11.89%     62.56% # Bytes accessed per row activation (Byte)
system.mem_ctrls.dram.bytesPerActivate::384-511           17      7.49%     70.04% # Bytes accessed per row activation (Byte)
system.mem_ctrls.dram.bytesPerActivate::512-639            8      3.52%     73.57% # Bytes accessed per row activation (Byte)
system.mem_ctrls.dram.bytesPerActivate::640-767           12      5.29%     78.85% # Bytes accessed per row activation (Byte)
system.mem_ctrls.dram.bytesPerActivate::768-895            7      3.08%     81.94% # Bytes accessed per row activation (Byte)
system.mem_ctrls.dram.bytesPerActivate::896-1023            5      2.20%     84.14% # Bytes accessed per row activation (Byte)
system.mem_ctrls.dram.bytesPerActivate::1024-1151           36     15.86%    100.00% # Bytes accessed per row activation (Byte)
system.mem_ctrls.dram.bytesPerActivate::total          227                       # Bytes accessed per row activation (Byte)
system.mem_ctrls.dram.bytesRead                 81280                       # Total bytes read (Byte)
system.mem_ctrls.dram.bytesWritten               7168                       # Total bytes written (Byte)
system.mem_ctrls.dram.avgRdBW             1626.087826                       # Average DRAM read bandwidth in MiBytes/s ((Byte/Second))
system.mem_ctrls.dram.avgWrBW              143.403021                       # Average DRAM write bandwidth in MiBytes/s ((Byte/Second))
system.mem_ctrls.dram.peakBW                 12800.00                       # Theoretical peak bandwidth in MiByte/s ((Byte/Second))
system.mem_ctrls.dram.busUtil                   13.82                       # Data bus utilization in percentage (Ratio)
system.mem_ctrls.dram.busUtilRead               12.70                       # Data bus utilization in percentage for reads (Ratio)
system.mem_ctrls.dram.busUtilWrite               1.12                       # Data bus utilization in percentage for writes (Ratio)
system.mem_ctrls.dram.pageHitRate               82.92                       # Row buffer hit rate, read and write combined (Ratio)
system.mem_ctrls.dram.power_state.pwrStateResidencyTicks::UNDEFINED     49985000                       # Cumulative time (in ticks) in various power states (Tick)
system.mem_ctrls.dram.rank0.actEnergy          728280                       # Energy for activate commands per rank (pJ) (Joule)
system.mem_ctrls.dram.rank0.preEnergy          364320                       # Energy for precharge commands per rank (pJ) (Joule)
system.mem_ctrls.dram.rank0.readEnergy        3627120                       # Energy for read commands per rank (pJ) (Joule)
system.mem_ctrls.dram.rank0.writeEnergy        339300                       # Energy for write commands per rank (pJ) (Joule)
system.mem_ctrls.dram.rank0.refreshEnergy 3687840.000000                       # Energy for refresh commands per rank (pJ) (Joule)
system.mem_ctrls.dram.rank0.actBackEnergy     21863490                       # Energy for active background per rank (pJ) (Joule)
system.mem_ctrls.dram.rank0.preBackEnergy       782880                       # Energy for precharge background per rank (pJ) (Joule)
system.mem_ctrls.dram.rank0.actPowerDownEnergy            0                       # Energy for active power-down per rank (pJ) (Joule)
system.mem_ctrls.dram.rank0.prePowerDownEnergy            0                       # Energy for precharge power-down per rank (pJ) (Joule)
system.mem_ctrls.dram.rank0.selfRefreshEnergy            0                       # Energy for self refresh per rank (pJ) (Joule)
system.mem_ctrls.dram.rank0.totalEnergy      31393230                       # Total energy per rank (pJ) (Joule)
system.mem_ctrls.dram.rank0.averagePower   628.053016                       # Core power per rank (mW) (Watt)
system.mem_ctrls.dram.rank0.totalIdleTime            0                       # Total Idle time Per DRAM Rank (Tick)
system.mem_ctrls.dram.rank0.pwrStateTime::IDLE      1855250                       # Time in different power states (Tick)
system.mem_ctrls.dram.rank0.pwrStateTime::REF      1560000                       # Time in different power states (Tick)
system.mem_ctrls.dram.rank0.pwrStateTime::SREF            0                       # Time in different power states (Tick)
system.mem_ctrls.dram.rank0.pwrStateTime::PRE_PDN            0                       # Time in different power states (Tick)
system.mem_ctrls.dram.rank0.pwrStateTime::ACT     46569750                       # Time in different power states (Tick)
system.mem_ctrls.dram.rank0.pwrStateTime::ACT_PDN            0                       # Time in different power states (Tick)
system.mem_ctrls.dram.rank1.actEnergy          956760                       # Energy for activate commands per rank (pJ) (Joule)
system.mem_ctrls.dram.rank1.preEnergy          497145                       # Energy for precharge commands per rank (pJ) (Joule)
system.mem_ctrls.dram.rank1.readEnergy        5440680                       # Energy for read commands per rank (pJ) (Joule)
system.mem_ctrls.dram.rank1.writeEnergy        245340                       # Energy for write commands per rank (pJ) (Joule)
system.mem_ctrls.dram.rank1.refreshEnergy 3687840.000000                       # Energy for refresh commands per rank (pJ) (Joule)
system.mem_ctrls.dram.rank1.actBackEnergy     21858360                       # Energy for active background per rank (pJ) (Joule)
system.mem_ctrls.dram.rank1.preBackEnergy       787200                       # Energy for precharge background per rank (pJ) (Joule)
system.mem_ctrls.dram.rank1.actPowerDownEnergy            0                       # Energy for active power-down per rank (pJ) (Joule)
system.mem_ctrls.dram.rank1.prePowerDownEnergy            0                       # Energy for precharge power-down per rank (pJ) (Joule)
system.mem_ctrls.dram.rank1.selfRefreshEnergy            0                       # Energy for self refresh per rank (pJ) (Joule)
system.mem_ctrls.dram.rank1.totalEnergy      33473325                       # Total energy per rank (pJ) (Joule)
system.mem_ctrls.dram.rank1.averagePower   669.667400                       # Core power per rank (mW) (Watt)
system.mem_ctrls.dram.rank1.totalIdleTime            0                       # Total Idle time Per DRAM Rank (Tick)
system.mem_ctrls.dram.rank1.pwrStateTime::IDLE      1883750                       # Time in different power states (Tick)
system.mem_ctrls.dram.rank1.pwrStateTime::REF      1560000                       # Time in different power states (Tick)
system.mem_ctrls.dram.rank1.pwrStateTime::SREF            0                       # Time in different power states (Tick)
system.mem_ctrls.dram.rank1.pwrStateTime::PRE_PDN            0                       # Time in different power states (Tick)
system.mem_ctrls.dram.rank1.pwrStateTime::ACT     46541250                       # Time in different power states (Tick)
system.mem_ctrls.dram.rank1.pwrStateTime::ACT_PDN            0                       # Time in different power states (Tick)
system.mem_ctrls.power_state.pwrStateResidencyTicks::UNDEFINED     49985000                       # Cumulative time (in ticks) in various power states (Tick)
system.membus.transDist::ReadResp                1038                       # Transaction distribution (Count)
system.membus.transDist::WritebackDirty            61                       # Transaction distribution (Count)
system.membus.transDist::WritebackClean            72                       # Transaction distribution (Count)
system.membus.transDist::CleanEvict                52                       # Transaction distribution (Count)
system.membus.transDist::ReadExReq                254                       # Transaction distribution (Count)
system.membus.transDist::ReadExResp               254                       # Transaction distribution (Count)
system.membus.transDist::ReadCleanReq             728                       # Transaction distribution (Count)
system.membus.transDist::ReadSharedReq            310                       # Transaction distribution (Count)
system.membus.pktCount_system.cpu.icache.mem_side_port::system.mem_ctrls.port         1528                       # Packet count per connected requestor and responder (Count)
system.membus.pktCount_system.cpu.icache.mem_side_port::total         1528                       # Packet count per connected requestor and responder (Count)
system.membus.pktCount_system.cpu.dcache.mem_side_port::system.mem_ctrls.port         1241                       # Packet count per connected requestor and responder (Count)
system.membus.pktCount_system.cpu.dcache.mem_side_port::total         1241                       # Packet count per connected requestor and responder (Count)
system.membus.pktCount::total                    2769                       # Packet count per connected requestor and responder (Count)
system.membus.pktSize_system.cpu.icache.mem_side_port::system.mem_ctrls.port        51200                       # Cumulative packet size per connected requestor and responder (Byte)
system.membus.pktSize_system.cpu.icache.mem_side_port::total        51200                       # Cumulative packet size per connected requestor and responder (Byte)
system.membus.pktSize_system.cpu.dcache.mem_side_port::system.mem_ctrls.port        40000                       # Cumulative packet size per connected requestor and responder (Byte)
system.membus.pktSize_system.cpu.dcache.mem_side_port::total        40000                       # Cumulative packet size per connected requestor and responder (Byte)
system.membus.pktSize::total                    91200                       # Cumulative packet size per connected requestor and responder (Byte)
system.membus.snoops                                0                       # Total snoops (Count)
system.membus.snoopTraffic                          0                       # Total snoop traffic (Byte)
system.membus.snoopFanout::samples               1292                       # Request fanout histogram (Count)
system.membus.snoopFanout::mean              0.000774                       # Request fanout histogram (Count)
system.membus.snoopFanout::stdev             0.027821                       # Request fanout histogram (Count)
system.membus.snoopFanout::underflows               0      0.00%      0.00% # Request fanout histogram (Count)
system.membus.snoopFanout::0                     1291     99.92%     99.92% # Request fanout histogram (Count)
system.membus.snoopFanout::1                        1      0.08%    100.00% # Request fanout histogram (Count)
system.membus.snoopFanout::2                        0      0.00%    100.00% # Request fanout histogram (Count)
system.membus.snoopFanout::3                        0      0.00%    100.00% # Request fanout histogram (Count)
system.membus.snoopFanout::4                        0      0.00%    100.00% # Request fanout histogram (Count)
system.membus.snoopFanout::overflows                0      0.00%    100.00% # Request fanout histogram (Count)
system.membus.snoopFanout::min_value                0                       # Request fanout histogram (Count)
system.membus.snoopFanout::max_value                1                       # Request fanout histogram (Count)
system.membus.snoopFanout::total                 1292                       # Request fanout histogram (Count)
system.membus.power_state.pwrStateResidencyTicks::UNDEFINED     49985000                       # Cumulative time (in ticks) in various power states (Tick)
system.membus.reqLayer2.occupancy             2255500                       # Layer occupancy (ticks) (Tick)
system.membus.reqLayer2.utilization               0.0                       # Layer utilization (Ratio)
system.membus.respLayer1.occupancy            3857500                       # Layer occupancy (ticks) (Tick)
system.membus.respLayer1.utilization              0.1                       # Layer utilization (Ratio)
system.membus.respLayer2.occupancy            2994000                       # Layer occupancy (ticks) (Tick)
system.membus.respLayer2.utilization              0.1                       # Layer utilization (Ratio)
system.membus.snoop_filter.totRequests           1477                       # Total number of requests made to the snoop filter. (Count)
system.membus.snoop_filter.hitSingleRequests          185                       # Number of requests hitting in the snoop filter with a single holder of the requested data. (Count)
system.membus.snoop_filter.hitMultiRequests            1                       # Number of requests hitting in the snoop filter with multiple (>1) holders of the requested data. (Count)
system.membus.snoop_filter.totSnoops                0                       # Total number of snoops made to the snoop filter. (Count)
system.membus.snoop_filter.hitSingleSnoops            0                       # Number of snoops hitting in the snoop filter with a single holder of the requested data. (Count)
system.membus.snoop_filter.hitMultiSnoops            0                       # Number of snoops hitting in the snoop filter with multiple (>1) holders of the requested data. (Count)
system.voltage_domain.voltage                       1                       # Voltage in Volts (Volt)
system.workload.inst.arm                            0                       # number of arm instructions executed (Count)
system.workload.inst.quiesce                        0                       # number of quiesce instructions executed (Count)

---------- End Simulation Statistics   ----------
