
---------- Begin Simulation Statistics ----------
simSeconds                                   0.000043                       # Number of seconds simulated (Second)
simTicks                                     43407910                       # Number of ticks simulated (Tick)
finalTick                                    43407910                       # Number of ticks from beginning of simulation (restored from checkpoints and never reset) (Tick)
simFreq                                  1000000000000                       # The number of ticks per simulated second ((Tick/Second))
hostSeconds                                      0.18                       # Real time elapsed on the host (Second)
hostTickRate                                246847548                       # The number of ticks simulated per host second (ticks/s) ((Tick/Second))
hostMemory                                     678308                       # Number of bytes of host memory used (Byte)
simInsts                                        19815                       # Number of instructions simulated (Count)
simOps                                          39457                       # Number of ops (including micro ops) simulated (Count)
hostInstRate                                   112621                       # Simulator instruction rate (inst/s) ((Count/Second))
hostOpRate                                     224250                       # Simulator op (including micro ops) rate (op/s) ((Count/Second))
system.clk_domain.clock                           455                       # Clock period in ticks (Tick)
system.cpu.numCycles                            95403                       # Number of cpu cycles simulated (Cycle)
system.cpu.numWorkItemsStarted                      0                       # Number of work items this cpu started (Count)
system.cpu.numWorkItemsCompleted                    0                       # Number of work items this cpu completed (Count)
system.cpu.instsAdded                           71203                       # Number of instructions added to the IQ (excludes non-spec) (Count)
system.cpu.nonSpecInstsAdded                        1                       # Number of non-speculative instructions added to the IQ (Count)
system.cpu.instsIssued                          62273                       # Number of instructions issued (Count)
system.cpu.squashedInstsIssued                    166                       # Number of squashed instructions issued (Count)
system.cpu.squashedInstsExamined                31741                       # Number of squashed instructions iterated over during squash; mainly for profiling (Count)
system.cpu.squashedOperandsExamined             41060                       # Number of squashed operands that are examined and possibly removed from graph (Count)
system.cpu.squashedNonSpecRemoved                   1                       # Number of squashed non-spec instructions that were removed (Count)
system.cpu.numIssuedDist::samples               62755                       # Number of insts issued each cycle (Count)
system.cpu.numIssuedDist::mean               0.992319                       # Number of insts issued each cycle (Count)
system.cpu.numIssuedDist::stdev              1.927389                       # Number of insts issued each cycle (Count)
system.cpu.numIssuedDist::underflows                0      0.00%      0.00% # Number of insts issued each cycle (Count)
system.cpu.numIssuedDist::0                     45291     72.17%     72.17% # Number of insts issued each cycle (Count)
system.cpu.numIssuedDist::1                      3646      5.81%     77.98% # Number of insts issued each cycle (Count)
system.cpu.numIssuedDist::2                      2902      4.62%     82.61% # Number of insts issued each cycle (Count)
system.cpu.numIssuedDist::3                      2469      3.93%     86.54% # Number of insts issued each cycle (Count)
system.cpu.numIssuedDist::4                      2703      4.31%     90.85% # Number of insts issued each cycle (Count)
system.cpu.numIssuedDist::5                      2131      3.40%     94.24% # Number of insts issued each cycle (Count)
system.cpu.numIssuedDist::6                      2005      3.19%     97.44% # Number of insts issued each cycle (Count)
system.cpu.numIssuedDist::7                       945      1.51%     98.94% # Number of insts issued each cycle (Count)
system.cpu.numIssuedDist::8                       663      1.06%    100.00% # Number of insts issued each cycle (Count)
system.cpu.numIssuedDist::overflows                 0      0.00%    100.00% # Number of insts issued each cycle (Count)
system.cpu.numIssuedDist::min_value                 0                       # Number of insts issued each cycle (Count)
system.cpu.numIssuedDist::max_value                 8                       # Number of insts issued each cycle (Count)
system.cpu.numIssuedDist::total                 62755                       # Number of insts issued each cycle (Count)
system.cpu.statFuBusy::No_OpClass                   0      0.00%      0.00% # attempts to use FU when none available (Count)
system.cpu.statFuBusy::IntAlu                     695     80.25%     80.25% # attempts to use FU when none available (Count)
system.cpu.statFuBusy::IntMult                      0      0.00%     80.25% # attempts to use FU when none available (Count)
system.cpu.statFuBusy::IntDiv                       0      0.00%     80.25% # attempts to use FU when none available (Count)
system.cpu.statFuBusy::FloatAdd                     0      0.00%     80.25% # attempts to use FU when none available (Count)
system.cpu.statFuBusy::FloatCmp                     0      0.00%     80.25% # attempts to use FU when none available (Count)
system.cpu.statFuBusy::FloatCvt                     0      0.00%     80.25% # attempts to use FU when none available (Count)
system.cpu.statFuBusy::FloatMult                    0      0.00%     80.25% # attempts to use FU when none available (Count)
system.cpu.statFuBusy::FloatMultAcc                 0      0.00%     80.25% # attempts to use FU when none available (Count)
system.cpu.statFuBusy::FloatDiv                     0      0.00%     80.25% # attempts to use FU when none available (Count)
system.cpu.statFuBusy::FloatMisc                    0      0.00%     80.25% # attempts to use FU when none available (Count)
system.cpu.statFuBusy::FloatSqrt                    0      0.00%     80.25% # attempts to use FU when none available (Count)
system.cpu.statFuBusy::SimdAdd                      0      0.00%     80.25% # attempts to use FU when none available (Count)
system.cpu.statFuBusy::SimdAddAcc                   0      0.00%     80.25% # attempts to use FU when none available (Count)
system.cpu.statFuBusy::SimdAlu                     18      2.08%     82.33% # attempts to use FU when none available (Count)
system.cpu.statFuBusy::SimdCmp                      0      0.00%     82.33% # attempts to use FU when none available (Count)
system.cpu.statFuBusy::SimdCvt                      0      0.00%     82.33% # attempts to use FU when none available (Count)
system.cpu.statFuBusy::SimdMisc                     2      0.23%     82.56% # attempts to use FU when none available (Count)
system.cpu.statFuBusy::SimdMult                     0      0.00%     82.56% # attempts to use FU when none available (Count)
system.cpu.statFuBusy::SimdMultAcc                  0      0.00%     82.56% # attempts to use FU when none available (Count)
system.cpu.statFuBusy::SimdShift                    2      0.23%     82.79% # attempts to use FU when none available (Count)
system.cpu.statFuBusy::SimdShiftAcc                 0      0.00%     82.79% # attempts to use FU when none available (Count)
system.cpu.statFuBusy::SimdDiv                      0      0.00%     82.79% # attempts to use FU when none available (Count)
system.cpu.statFuBusy::SimdSqrt                     0      0.00%     82.79% # attempts to use FU when none available (Count)
system.cpu.statFuBusy::SimdFloatAdd                 0      0.00%     82.79% # attempts to use FU when none available (Count)
system.cpu.statFuBusy::SimdFloatAlu                 0      0.00%     82.79% # attempts to use FU when none available (Count)
system.cpu.statFuBusy::SimdFloatCmp                 0      0.00%     82.79% # attempts to use FU when none available (Count)
system.cpu.statFuBusy::SimdFloatCvt                 0      0.00%     82.79% # attempts to use FU when none available (Count)
system.cpu.statFuBusy::SimdFloatDiv                 0      0.00%     82.79% # attempts to use FU when none available (Count)
system.cpu.statFuBusy::SimdFloatMisc                0      0.00%     82.79% # attempts to use FU when none available (Count)
system.cpu.statFuBusy::SimdFloatMult                0      0.00%     82.79% # attempts to use FU when none available (Count)
system.cpu.statFuBusy::SimdFloatMultAcc             0      0.00%     82.79% # attempts to use FU when none available (Count)
system.cpu.statFuBusy::SimdFloatSqrt                0      0.00%     82.79% # attempts to use FU when none available (Count)
system.cpu.statFuBusy::SimdReduceAdd                0      0.00%     82.79% # attempts to use FU when none available (Count)
system.cpu.statFuBusy::SimdReduceAlu                0      0.00%     82.79% # attempts to use FU when none available (Count)
system.cpu.statFuBusy::SimdReduceCmp                0      0.00%     82.79% # attempts to use FU when none available (Count)
system.cpu.statFuBusy::SimdFloatReduceAdd            0      0.00%     82.79% # attempts to use FU when none available (Count)
system.cpu.statFuBusy::SimdFloatReduceCmp            0      0.00%     82.79% # attempts to use FU when none available (Count)
system.cpu.statFuBusy::SimdAes                      0      0.00%     82.79% # attempts to use FU when none available (Count)
system.cpu.statFuBusy::SimdAesMix                   0      0.00%     82.79% # attempts to use FU when none available (Count)
system.cpu.statFuBusy::SimdSha1Hash                 0      0.00%     82.79% # attempts to use FU when none available (Count)
system.cpu.statFuBusy::SimdSha1Hash2                0      0.00%     82.79% # attempts to use FU when none available (Count)
system.cpu.statFuBusy::SimdSha256Hash               0      0.00%     82.79% # attempts to use FU when none available (Count)
system.cpu.statFuBusy::SimdSha256Hash2              0      0.00%     82.79% # attempts to use FU when none available (Count)
system.cpu.statFuBusy::SimdShaSigma2                0      0.00%     82.79% # attempts to use FU when none available (Count)
system.cpu.statFuBusy::SimdShaSigma3                0      0.00%     82.79% # attempts to use FU when none available (Count)
system.cpu.statFuBusy::SimdPredAlu                  0      0.00%     82.79% # attempts to use FU when none available (Count)
system.cpu.statFuBusy::MemRead                     97     11.20%     94.00% # attempts to use FU when none available (Count)
system.cpu.statFuBusy::MemWrite                    26      3.00%     97.00% # attempts to use FU when none available (Count)
system.cpu.statFuBusy::FloatMemRead                 7      0.81%     97.81% # attempts to use FU when none available (Count)
system.cpu.statFuBusy::FloatMemWrite               19      2.19%    100.00% # attempts to use FU when none available (Count)
system.cpu.statFuBusy::IprAccess                    0      0.00%    100.00% # attempts to use FU when none available (Count)
system.cpu.statFuBusy::InstPrefetch                 0      0.00%    100.00% # attempts to use FU when none available (Count)
system.cpu.statIssuedInstType_0::No_OpClass          946      1.52%      1.52% # Number of instructions issued per FU type, per thread (Count)
system.cpu.statIssuedInstType_0::IntAlu         46934     75.37%     76.89% # Number of instructions issued per FU type, per thread (Count)
system.cpu.statIssuedInstType_0::IntMult           18      0.03%     76.92% # Number of instructions issued per FU type, per thread (Count)
system.cpu.statIssuedInstType_0::IntDiv            46      0.07%     76.99% # Number of instructions issued per FU type, per thread (Count)
system.cpu.statIssuedInstType_0::FloatAdd          171      0.27%     77.26% # Number of instructions issued per FU type, per thread (Count)
system.cpu.statIssuedInstType_0::FloatCmp            0      0.00%     77.26% # Number of instructions issued per FU type, per thread (Count)
system.cpu.statIssuedInstType_0::FloatCvt            0      0.00%     77.26% # Number of instructions issued per FU type, per thread (Count)
system.cpu.statIssuedInstType_0::FloatMult            0      0.00%     77.26% # Number of instructions issued per FU type, per thread (Count)
system.cpu.statIssuedInstType_0::FloatMultAcc            0      0.00%     77.26% # Number of instructions issued per FU type, per thread (Count)
system.cpu.statIssuedInstType_0::FloatDiv            0      0.00%     77.26% # Number of instructions issued per FU type, per thread (Count)
system.cpu.statIssuedInstType_0::FloatMisc            0      0.00%     77.26% # Number of instructions issued per FU type, per thread (Count)
system.cpu.statIssuedInstType_0::FloatSqrt            0      0.00%     77.26% # Number of instructions issued per FU type, per thread (Count)
system.cpu.statIssuedInstType_0::SimdAdd          216      0.35%     77.61% # Number of instructions issued per FU type, per thread (Count)
system.cpu.statIssuedInstType_0::SimdAddAcc            0      0.00%     77.61% # Number of instructions issued per FU type, per thread (Count)
system.cpu.statIssuedInstType_0::SimdAlu          684      1.10%     78.71% # Number of instructions issued per FU type, per thread (Count)
system.cpu.statIssuedInstType_0::SimdCmp            0      0.00%     78.71% # Number of instructions issued per FU type, per thread (Count)
system.cpu.statIssuedInstType_0::SimdCvt          680      1.09%     79.80% # Number of instructions issued per FU type, per thread (Count)
system.cpu.statIssuedInstType_0::SimdMisc          586      0.94%     80.74% # Number of instructions issued per FU type, per thread (Count)
system.cpu.statIssuedInstType_0::SimdMult            0      0.00%     80.74% # Number of instructions issued per FU type, per thread (Count)
system.cpu.statIssuedInstType_0::SimdMultAcc            0      0.00%     80.74% # Number of instructions issued per FU type, per thread (Count)
system.cpu.statIssuedInstType_0::SimdShift          190      0.31%     81.05% # Number of instructions issued per FU type, per thread (Count)
system.cpu.statIssuedInstType_0::SimdShiftAcc            0      0.00%     81.05% # Number of instructions issued per FU type, per thread (Count)
system.cpu.statIssuedInstType_0::SimdDiv            0      0.00%     81.05% # Number of instructions issued per FU type, per thread (Count)
system.cpu.statIssuedInstType_0::SimdSqrt            0      0.00%     81.05% # Number of instructions issued per FU type, per thread (Count)
system.cpu.statIssuedInstType_0::SimdFloatAdd            0      0.00%     81.05% # Number of instructions issued per FU type, per thread (Count)
system.cpu.statIssuedInstType_0::SimdFloatAlu            0      0.00%     81.05% # Number of instructions issued per FU type, per thread (Count)
system.cpu.statIssuedInstType_0::SimdFloatCmp            0      0.00%     81.05% # Number of instructions issued per FU type, per thread (Count)
system.cpu.statIssuedInstType_0::SimdFloatCvt            0      0.00%     81.05% # Number of instructions issued per FU type, per thread (Count)
system.cpu.statIssuedInstType_0::SimdFloatDiv            0      0.00%     81.05% # Number of instructions issued per FU type, per thread (Count)
system.cpu.statIssuedInstType_0::SimdFloatMisc            0      0.00%     81.05% # Number of instructions issued per FU type, per thread (Count)
system.cpu.statIssuedInstType_0::SimdFloatMult            0      0.00%     81.05% # Number of instructions issued per FU type, per thread (Count)
system.cpu.statIssuedInstType_0::SimdFloatMultAcc            0      0.00%     81.05% # Number of instructions issued per FU type, per thread (Count)
system.cpu.statIssuedInstType_0::SimdFloatSqrt            0      0.00%     81.05% # Number of instructions issued per FU type, per thread (Count)
system.cpu.statIssuedInstType_0::SimdReduceAdd            0      0.00%     81.05% # Number of instructions issued per FU type, per thread (Count)
system.cpu.statIssuedInstType_0::SimdReduceAlu            0      0.00%     81.05% # Number of instructions issued per FU type, per thread (Count)
system.cpu.statIssuedInstType_0::SimdReduceCmp            0      0.00%     81.05% # Number of instructions issued per FU type, per thread (Count)
system.cpu.statIssuedInstType_0::SimdFloatReduceAdd            0      0.00%     81.05% # Number of instructions issued per FU type, per thread (Count)
system.cpu.statIssuedInstType_0::SimdFloatReduceCmp            0      0.00%     81.05% # Number of instructions issued per FU type, per thread (Count)
system.cpu.statIssuedInstType_0::SimdAes            0      0.00%     81.05% # Number of instructions issued per FU type, per thread (Count)
system.cpu.statIssuedInstType_0::SimdAesMix            0      0.00%     81.05% # Number of instructions issued per FU type, per thread (Count)
system.cpu.statIssuedInstType_0::SimdSha1Hash            0      0.00%     81.05% # Number of instructions issued per FU type, per thread (Count)
system.cpu.statIssuedInstType_0::SimdSha1Hash2            0      0.00%     81.05% # Number of instructions issued per FU type, per thread (Count)
system.cpu.statIssuedInstType_0::SimdSha256Hash            0      0.00%     81.05% # Number of instructions issued per FU type, per thread (Count)
system.cpu.statIssuedInstType_0::SimdSha256Hash2            0      0.00%     81.05% # Number of instructions issued per FU type, per thread (Count)
system.cpu.statIssuedInstType_0::SimdShaSigma2            0      0.00%     81.05% # Number of instructions issued per FU type, per thread (Count)
system.cpu.statIssuedInstType_0::SimdShaSigma3            0      0.00%     81.05% # Number of instructions issued per FU type, per thread (Count)
system.cpu.statIssuedInstType_0::SimdPredAlu            0      0.00%     81.05% # Number of instructions issued per FU type, per thread (Count)
system.cpu.statIssuedInstType_0::MemRead         6904     11.09%     92.13% # Number of instructions issued per FU type, per thread (Count)
system.cpu.statIssuedInstType_0::MemWrite         3304      5.31%     97.44% # Number of instructions issued per FU type, per thread (Count)
system.cpu.statIssuedInstType_0::FloatMemRead         1093      1.76%     99.20% # Number of instructions issued per FU type, per thread (Count)
system.cpu.statIssuedInstType_0::FloatMemWrite          501      0.80%    100.00% # Number of instructions issued per FU type, per thread (Count)
system.cpu.statIssuedInstType_0::IprAccess            0      0.00%    100.00% # Number of instructions issued per FU type, per thread (Count)
system.cpu.statIssuedInstType_0::InstPrefetch            0      0.00%    100.00% # Number of instructions issued per FU type, per thread (Count)
system.cpu.statIssuedInstType_0::total          62273                       # Number of instructions issued per FU type, per thread (Count)
system.cpu.issueRate                         0.652736                       # Inst issue rate ((Count/Cycle))
system.cpu.fuBusy                                 866                       # FU busy when requested (Count)
system.cpu.fuBusyRate                        0.013907                       # FU busy rate (busy events/executed inst) ((Count/Count))
system.cpu.intInstQueueReads                   179777                       # Number of integer instruction queue reads (Count)
system.cpu.intInstQueueWrites                   94687                       # Number of integer instruction queue writes (Count)
system.cpu.intInstQueueWakeupAccesses           55314                       # Number of integer instruction queue wakeup accesses (Count)
system.cpu.fpInstQueueReads                      8556                       # Number of floating instruction queue reads (Count)
system.cpu.fpInstQueueWrites                     8300                       # Number of floating instruction queue writes (Count)
system.cpu.fpInstQueueWakeupAccesses             3903                       # Number of floating instruction queue wakeup accesses (Count)
system.cpu.vecInstQueueReads                        0                       # Number of vector instruction queue reads (Count)
system.cpu.vecInstQueueWrites                       0                       # Number of vector instruction queue writes (Count)
system.cpu.vecInstQueueWakeupAccesses               0                       # Number of vector instruction queue wakeup accesses (Count)
system.cpu.intAluAccesses                       57899                       # Number of integer alu accesses (Count)
system.cpu.fpAluAccesses                         4294                       # Number of floating point alu accesses (Count)
system.cpu.vecAluAccesses                           0                       # Number of vector alu accesses (Count)
system.cpu.numInsts                             60637                       # Number of executed instructions (Count)
system.cpu.numLoadInsts                          7680                       # Number of load instructions executed (Count)
system.cpu.numSquashedInsts                      1636                       # Number of squashed instructions skipped in execute (Count)
system.cpu.numSwp                                   0                       # Number of swp insts executed (Count)
system.cpu.numNop                                   0                       # Number of nop insts executed (Count)
system.cpu.numRefs                              11339                       # Number of memory reference insts executed (Count)
system.cpu.numBranches                           6027                       # Number of branches executed (Count)
system.cpu.numStoreInsts                         3659                       # Number of stores executed (Count)
system.cpu.numRate                           0.635588                       # Inst execution rate ((Count/Cycle))
system.cpu.timesIdled                             415                       # Number of times that the entire CPU went into an idle state and unscheduled itself (Count)
system.cpu.idleCycles                           32648                       # Total number of cycles that the CPU has spent unscheduled due to idling (Cycle)
system.cpu.committedInsts                       19815                       # Number of Instructions Simulated (Count)
system.cpu.committedOps                         39457                       # Number of Ops (including micro ops) Simulated (Count)
system.cpu.cpi                               4.814686                       # CPI: Cycles Per Instruction ((Cycle/Count))
system.cpu.totalCpi                          4.814686                       # CPI: Total CPI of All Threads ((Cycle/Count))
system.cpu.ipc                               0.207698                       # IPC: Instructions Per Cycle ((Count/Cycle))
system.cpu.totalIpc                          0.207698                       # IPC: Total IPC of All Threads ((Count/Cycle))
system.cpu.intRegfileReads                      80954                       # Number of integer regfile reads (Count)
system.cpu.intRegfileWrites                     45859                       # Number of integer regfile writes (Count)
system.cpu.fpRegfileReads                        5961                       # Number of floating regfile reads (Count)
system.cpu.fpRegfileWrites                       3164                       # Number of floating regfile writes (Count)
system.cpu.ccRegfileReads                       32516                       # number of cc regfile reads (Count)
system.cpu.ccRegfileWrites                      19175                       # number of cc regfile writes (Count)
system.cpu.miscRegfileReads                     24521                       # number of misc regfile reads (Count)
system.cpu.MemDepUnit__0.insertedLoads           8387                       # Number of loads inserted to the mem dependence unit. (Count)
system.cpu.MemDepUnit__0.insertedStores          4342                       # Number of stores inserted to the mem dependence unit. (Count)
system.cpu.MemDepUnit__0.conflictingLoads           56                       # Number of conflicting loads. (Count)
system.cpu.MemDepUnit__0.conflictingStores           25                       # Number of conflicting stores. (Count)
system.cpu.MemDepUnit__1.insertedLoads              0                       # Number of loads inserted to the mem dependence unit. (Count)
system.cpu.MemDepUnit__1.insertedStores             0                       # Number of stores inserted to the mem dependence unit. (Count)
system.cpu.MemDepUnit__1.conflictingLoads            0                       # Number of conflicting loads. (Count)
system.cpu.MemDepUnit__1.conflictingStores            0                       # Number of conflicting stores. (Count)
system.cpu.MemDepUnit__2.insertedLoads              0                       # Number of loads inserted to the mem dependence unit. (Count)
system.cpu.MemDepUnit__2.insertedStores             0                       # Number of stores inserted to the mem dependence unit. (Count)
system.cpu.MemDepUnit__2.conflictingLoads            0                       # Number of conflicting loads. (Count)
system.cpu.MemDepUnit__2.conflictingStores            0                       # Number of conflicting stores. (Count)
system.cpu.MemDepUnit__3.insertedLoads              0                       # Number of loads inserted to the mem dependence unit. (Count)
system.cpu.MemDepUnit__3.insertedStores             0                       # Number of stores inserted to the mem dependence unit. (Count)
system.cpu.MemDepUnit__3.conflictingLoads            0                       # Number of conflicting loads. (Count)
system.cpu.MemDepUnit__3.conflictingStores            0                       # Number of conflicting stores. (Count)
system.cpu.branchPred.lookups                   10030                       # Number of BP lookups (Count)
system.cpu.branchPred.condPredicted              8127                       # Number of conditional branches predicted (Count)
system.cpu.branchPred.condIncorrect              1275                       # Number of conditional branches incorrect (Count)
system.cpu.branchPred.BTBLookups                 4092                       # Number of BTB lookups (Count)
system.cpu.branchPred.BTBHits                    2944                       # Number of BTB hits (Count)
system.cpu.branchPred.BTBHitRatio            0.719453                       # BTB Hit Ratio (Ratio)
system.cpu.branchPred.RASUsed                     532                       # Number of times the RAS was used to get a target. (Count)
system.cpu.branchPred.RASIncorrect                  0                       # Number of incorrect RAS predictions. (Count)
system.cpu.branchPred.indirectLookups             228                       # Number of indirect predictor lookups. (Count)
system.cpu.branchPred.indirectHits                 13                       # Number of indirect target hits. (Count)
system.cpu.branchPred.indirectMisses              215                       # Number of indirect misses. (Count)
system.cpu.branchPred.indirectMispredicted          102                       # Number of mispredicted indirect branches. (Count)
system.cpu.commit.commitSquashedInsts           31119                       # The number of squashed insts skipped by commit (Count)
system.cpu.commit.branchMispredicts               928                       # The number of times a branch was mispredicted (Count)
system.cpu.commit.numCommittedDist::samples        58179                       # Number of insts commited each cycle (Count)
system.cpu.commit.numCommittedDist::mean     0.678200                       # Number of insts commited each cycle (Count)
system.cpu.commit.numCommittedDist::stdev     1.711110                       # Number of insts commited each cycle (Count)
system.cpu.commit.numCommittedDist::underflows            0      0.00%      0.00% # Number of insts commited each cycle (Count)
system.cpu.commit.numCommittedDist::0           46322     79.62%     79.62% # Number of insts commited each cycle (Count)
system.cpu.commit.numCommittedDist::1            3331      5.73%     85.35% # Number of insts commited each cycle (Count)
system.cpu.commit.numCommittedDist::2            2140      3.68%     89.02% # Number of insts commited each cycle (Count)
system.cpu.commit.numCommittedDist::3            2316      3.98%     93.00% # Number of insts commited each cycle (Count)
system.cpu.commit.numCommittedDist::4            1213      2.08%     95.09% # Number of insts commited each cycle (Count)
system.cpu.commit.numCommittedDist::5             601      1.03%     96.12% # Number of insts commited each cycle (Count)
system.cpu.commit.numCommittedDist::6             326      0.56%     96.68% # Number of insts commited each cycle (Count)
system.cpu.commit.numCommittedDist::7             355      0.61%     97.29% # Number of insts commited each cycle (Count)
system.cpu.commit.numCommittedDist::8            1575      2.71%    100.00% # Number of insts commited each cycle (Count)
system.cpu.commit.numCommittedDist::overflows            0      0.00%    100.00% # Number of insts commited each cycle (Count)
system.cpu.commit.numCommittedDist::min_value            0                       # Number of insts commited each cycle (Count)
system.cpu.commit.numCommittedDist::max_value            8                       # Number of insts commited each cycle (Count)
system.cpu.commit.numCommittedDist::total        58179                       # Number of insts commited each cycle (Count)
system.cpu.commit.instsCommitted                19815                       # Number of instructions committed (Count)
system.cpu.commit.opsCommitted                  39457                       # Number of ops (including micro ops) committed (Count)
system.cpu.commit.memRefs                        7263                       # Number of memory references committed (Count)
system.cpu.commit.loads                          4394                       # Number of loads committed (Count)
system.cpu.commit.amos                              0                       # Number of atomic instructions committed (Count)
system.cpu.commit.membars                           0                       # Number of memory barriers committed (Count)
system.cpu.commit.branches                       4499                       # Number of branches committed (Count)
system.cpu.commit.vectorInstructions                0                       # Number of committed Vector instructions. (Count)
system.cpu.commit.floating                       2002                       # Number of committed floating point instructions. (Count)
system.cpu.commit.integer                       37555                       # Number of committed integer instructions. (Count)
system.cpu.commit.functionCalls                   250                       # Number of function calls committed. (Count)
system.cpu.commit.committedInstType_0::No_OpClass          426      1.08%      1.08% # Class of committed instruction (Count)
system.cpu.commit.committedInstType_0::IntAlu        30519     77.35%     78.43% # Class of committed instruction (Count)
system.cpu.commit.committedInstType_0::IntMult           14      0.04%     78.46% # Class of committed instruction (Count)
system.cpu.commit.committedInstType_0::IntDiv           41      0.10%     78.57% # Class of committed instruction (Count)
system.cpu.commit.committedInstType_0::FloatAdd           80      0.20%     78.77% # Class of committed instruction (Count)
system.cpu.commit.committedInstType_0::FloatCmp            0      0.00%     78.77% # Class of committed instruction (Count)
system.cpu.commit.committedInstType_0::FloatCvt            0      0.00%     78.77% # Class of committed instruction (Count)
system.cpu.commit.committedInstType_0::FloatMult            0      0.00%     78.77% # Class of committed instruction (Count)
system.cpu.commit.committedInstType_0::FloatMultAcc            0      0.00%     78.77% # Class of committed instruction (Count)
system.cpu.commit.committedInstType_0::FloatDiv            0      0.00%     78.77% # Class of committed instruction (Count)
system.cpu.commit.committedInstType_0::FloatMisc            0      0.00%     78.77% # Class of committed instruction (Count)
system.cpu.commit.committedInstType_0::FloatSqrt            0      0.00%     78.77% # Class of committed instruction (Count)
system.cpu.commit.committedInstType_0::SimdAdd           86      0.22%     78.99% # Class of committed instruction (Count)
system.cpu.commit.committedInstType_0::SimdAddAcc            0      0.00%     78.99% # Class of committed instruction (Count)
system.cpu.commit.committedInstType_0::SimdAlu          311      0.79%     79.78% # Class of committed instruction (Count)
system.cpu.commit.committedInstType_0::SimdCmp            0      0.00%     79.78% # Class of committed instruction (Count)
system.cpu.commit.committedInstType_0::SimdCvt          280      0.71%     80.49% # Class of committed instruction (Count)
system.cpu.commit.committedInstType_0::SimdMisc          350      0.89%     81.37% # Class of committed instruction (Count)
system.cpu.commit.committedInstType_0::SimdMult            0      0.00%     81.37% # Class of committed instruction (Count)
system.cpu.commit.committedInstType_0::SimdMultAcc            0      0.00%     81.37% # Class of committed instruction (Count)
system.cpu.commit.committedInstType_0::SimdShift           87      0.22%     81.59% # Class of committed instruction (Count)
system.cpu.commit.committedInstType_0::SimdShiftAcc            0      0.00%     81.59% # Class of committed instruction (Count)
system.cpu.commit.committedInstType_0::SimdDiv            0      0.00%     81.59% # Class of committed instruction (Count)
system.cpu.commit.committedInstType_0::SimdSqrt            0      0.00%     81.59% # Class of committed instruction (Count)
system.cpu.commit.committedInstType_0::SimdFloatAdd            0      0.00%     81.59% # Class of committed instruction (Count)
system.cpu.commit.committedInstType_0::SimdFloatAlu            0      0.00%     81.59% # Class of committed instruction (Count)
system.cpu.commit.committedInstType_0::SimdFloatCmp            0      0.00%     81.59% # Class of committed instruction (Count)
system.cpu.commit.committedInstType_0::SimdFloatCvt            0      0.00%     81.59% # Class of committed instruction (Count)
system.cpu.commit.committedInstType_0::SimdFloatDiv            0      0.00%     81.59% # Class of committed instruction (Count)
system.cpu.commit.committedInstType_0::SimdFloatMisc            0      0.00%     81.59% # Class of committed instruction (Count)
system.cpu.commit.committedInstType_0::SimdFloatMult            0      0.00%     81.59% # Class of committed instruction (Count)
system.cpu.commit.committedInstType_0::SimdFloatMultAcc            0      0.00%     81.59% # Class of committed instruction (Count)
system.cpu.commit.committedInstType_0::SimdFloatSqrt            0      0.00%     81.59% # Class of committed instruction (Count)
system.cpu.commit.committedInstType_0::SimdReduceAdd            0      0.00%     81.59% # Class of committed instruction (Count)
system.cpu.commit.committedInstType_0::SimdReduceAlu            0      0.00%     81.59% # Class of committed instruction (Count)
system.cpu.commit.committedInstType_0::SimdReduceCmp            0      0.00%     81.59% # Class of committed instruction (Count)
system.cpu.commit.committedInstType_0::SimdFloatReduceAdd            0      0.00%     81.59% # Class of committed instruction (Count)
system.cpu.commit.committedInstType_0::SimdFloatReduceCmp            0      0.00%     81.59% # Class of committed instruction (Count)
system.cpu.commit.committedInstType_0::SimdAes            0      0.00%     81.59% # Class of committed instruction (Count)
system.cpu.commit.committedInstType_0::SimdAesMix            0      0.00%     81.59% # Class of committed instruction (Count)
system.cpu.commit.committedInstType_0::SimdSha1Hash            0      0.00%     81.59% # Class of committed instruction (Count)
system.cpu.commit.committedInstType_0::SimdSha1Hash2            0      0.00%     81.59% # Class of committed instruction (Count)
system.cpu.commit.committedInstType_0::SimdSha256Hash            0      0.00%     81.59% # Class of committed instruction (Count)
system.cpu.commit.committedInstType_0::SimdSha256Hash2            0      0.00%     81.59% # Class of committed instruction (Count)
system.cpu.commit.committedInstType_0::SimdShaSigma2            0      0.00%     81.59% # Class of committed instruction (Count)
system.cpu.commit.committedInstType_0::SimdShaSigma3            0      0.00%     81.59% # Class of committed instruction (Count)
system.cpu.commit.committedInstType_0::SimdPredAlu            0      0.00%     81.59% # Class of committed instruction (Count)
system.cpu.commit.committedInstType_0::MemRead         4066     10.30%     91.90% # Class of committed instruction (Count)
system.cpu.commit.committedInstType_0::MemWrite         2469      6.26%     98.15% # Class of committed instruction (Count)
system.cpu.commit.committedInstType_0::FloatMemRead          328      0.83%     98.99% # Class of committed instruction (Count)
system.cpu.commit.committedInstType_0::FloatMemWrite          400      1.01%    100.00% # Class of committed instruction (Count)
system.cpu.commit.committedInstType_0::IprAccess            0      0.00%    100.00% # Class of committed instruction (Count)
system.cpu.commit.committedInstType_0::InstPrefetch            0      0.00%    100.00% # Class of committed instruction (Count)
system.cpu.commit.committedInstType_0::total        39457                       # Class of committed instruction (Count)
system.cpu.commit.commitEligibleSamples          1575                       # number cycles where commit BW limit reached (Cycle)
system.cpu.dcache.demandHits::cpu.data           8602                       # number of demand (read+write) hits (Count)
system.cpu.dcache.demandHits::total              8602                       # number of demand (read+write) hits (Count)
system.cpu.dcache.overallHits::cpu.data          8602                       # number of overall hits (Count)
system.cpu.dcache.overallHits::total             8602                       # number of overall hits (Count)
system.cpu.dcache.demandMisses::cpu.data         1302                       # number of demand (read+write) misses (Count)
system.cpu.dcache.demandMisses::total            1302                       # number of demand (read+write) misses (Count)
system.cpu.dcache.overallMisses::cpu.data         1302                       # number of overall misses (Count)
system.cpu.dcache.overallMisses::total           1302                       # number of overall misses (Count)
system.cpu.dcache.demandMissLatency::cpu.data     60258834                       # number of demand (read+write) miss ticks (Tick)
system.cpu.dcache.demandMissLatency::total     60258834                       # number of demand (read+write) miss ticks (Tick)
system.cpu.dcache.overallMissLatency::cpu.data     60258834                       # number of overall miss ticks (Tick)
system.cpu.dcache.overallMissLatency::total     60258834                       # number of overall miss ticks (Tick)
system.cpu.dcache.demandAccesses::cpu.data         9904                       # number of demand (read+write) accesses (Count)
system.cpu.dcache.demandAccesses::total          9904                       # number of demand (read+write) accesses (Count)
system.cpu.dcache.overallAccesses::cpu.data         9904                       # number of overall (read+write) accesses (Count)
system.cpu.dcache.overallAccesses::total         9904                       # number of overall (read+write) accesses (Count)
system.cpu.dcache.demandMissRate::cpu.data     0.131462                       # miss rate for demand accesses (Ratio)
system.cpu.dcache.demandMissRate::total      0.131462                       # miss rate for demand accesses (Ratio)
system.cpu.dcache.overallMissRate::cpu.data     0.131462                       # miss rate for overall accesses (Ratio)
system.cpu.dcache.overallMissRate::total     0.131462                       # miss rate for overall accesses (Ratio)
system.cpu.dcache.demandAvgMissLatency::cpu.data 46281.746544                       # average overall miss latency ((Cycle/Count))
system.cpu.dcache.demandAvgMissLatency::total 46281.746544                       # average overall miss latency ((Cycle/Count))
system.cpu.dcache.overallAvgMissLatency::cpu.data 46281.746544                       # average overall miss latency ((Cycle/Count))
system.cpu.dcache.overallAvgMissLatency::total 46281.746544                       # average overall miss latency ((Cycle/Count))
system.cpu.dcache.blockedCycles::no_mshrs         1997                       # number of cycles access was blocked (Cycle)
system.cpu.dcache.blockedCycles::no_targets            0                       # number of cycles access was blocked (Cycle)
system.cpu.dcache.blockedCauses::no_mshrs           80                       # number of times access was blocked (Count)
system.cpu.dcache.blockedCauses::no_targets            0                       # number of times access was blocked (Count)
system.cpu.dcache.avgBlocked::no_mshrs      24.962500                       # average number of cycles each access was blocked ((Cycle/Count))
system.cpu.dcache.avgBlocked::no_targets          nan                       # average number of cycles each access was blocked ((Cycle/Count))
system.cpu.dcache.demandMshrHits::cpu.data          780                       # number of demand (read+write) MSHR hits (Count)
system.cpu.dcache.demandMshrHits::total           780                       # number of demand (read+write) MSHR hits (Count)
system.cpu.dcache.overallMshrHits::cpu.data          780                       # number of overall MSHR hits (Count)
system.cpu.dcache.overallMshrHits::total          780                       # number of overall MSHR hits (Count)
system.cpu.dcache.demandMshrMisses::cpu.data          522                       # number of demand (read+write) MSHR misses (Count)
system.cpu.dcache.demandMshrMisses::total          522                       # number of demand (read+write) MSHR misses (Count)
system.cpu.dcache.overallMshrMisses::cpu.data          522                       # number of overall MSHR misses (Count)
system.cpu.dcache.overallMshrMisses::total          522                       # number of overall MSHR misses (Count)
system.cpu.dcache.demandMshrMissLatency::cpu.data     27222650                       # number of demand (read+write) MSHR miss ticks (Tick)
system.cpu.dcache.demandMshrMissLatency::total     27222650                       # number of demand (read+write) MSHR miss ticks (Tick)
system.cpu.dcache.overallMshrMissLatency::cpu.data     27222650                       # number of overall MSHR miss ticks (Tick)
system.cpu.dcache.overallMshrMissLatency::total     27222650                       # number of overall MSHR miss ticks (Tick)
system.cpu.dcache.demandMshrMissRate::cpu.data     0.052706                       # mshr miss ratio for demand accesses (Ratio)
system.cpu.dcache.demandMshrMissRate::total     0.052706                       # mshr miss ratio for demand accesses (Ratio)
system.cpu.dcache.overallMshrMissRate::cpu.data     0.052706                       # mshr miss ratio for overall accesses (Ratio)
system.cpu.dcache.overallMshrMissRate::total     0.052706                       # mshr miss ratio for overall accesses (Ratio)
system.cpu.dcache.demandAvgMshrMissLatency::cpu.data 52150.670498                       # average overall mshr miss latency ((Cycle/Count))
system.cpu.dcache.demandAvgMshrMissLatency::total 52150.670498                       # average overall mshr miss latency ((Cycle/Count))
system.cpu.dcache.overallAvgMshrMissLatency::cpu.data 52150.670498                       # average overall mshr miss latency ((Cycle/Count))
system.cpu.dcache.overallAvgMshrMissLatency::total 52150.670498                       # average overall mshr miss latency ((Cycle/Count))
system.cpu.dcache.replacements                      0                       # number of replacements (Count)
system.cpu.dcache.ReadReq.hits::cpu.data         5985                       # number of ReadReq hits (Count)
system.cpu.dcache.ReadReq.hits::total            5985                       # number of ReadReq hits (Count)
system.cpu.dcache.ReadReq.misses::cpu.data         1049                       # number of ReadReq misses (Count)
system.cpu.dcache.ReadReq.misses::total          1049                       # number of ReadReq misses (Count)
system.cpu.dcache.ReadReq.missLatency::cpu.data     47495630                       # number of ReadReq miss ticks (Tick)
system.cpu.dcache.ReadReq.missLatency::total     47495630                       # number of ReadReq miss ticks (Tick)
system.cpu.dcache.ReadReq.accesses::cpu.data         7034                       # number of ReadReq accesses(hits+misses) (Count)
system.cpu.dcache.ReadReq.accesses::total         7034                       # number of ReadReq accesses(hits+misses) (Count)
system.cpu.dcache.ReadReq.missRate::cpu.data     0.149133                       # miss rate for ReadReq accesses (Ratio)
system.cpu.dcache.ReadReq.missRate::total     0.149133                       # miss rate for ReadReq accesses (Ratio)
system.cpu.dcache.ReadReq.avgMissLatency::cpu.data 45277.054337                       # average ReadReq miss latency ((Tick/Count))
system.cpu.dcache.ReadReq.avgMissLatency::total 45277.054337                       # average ReadReq miss latency ((Tick/Count))
system.cpu.dcache.ReadReq.mshrHits::cpu.data          776                       # number of ReadReq MSHR hits (Count)
system.cpu.dcache.ReadReq.mshrHits::total          776                       # number of ReadReq MSHR hits (Count)
system.cpu.dcache.ReadReq.mshrMisses::cpu.data          273                       # number of ReadReq MSHR misses (Count)
system.cpu.dcache.ReadReq.mshrMisses::total          273                       # number of ReadReq MSHR misses (Count)
system.cpu.dcache.ReadReq.mshrMissLatency::cpu.data     14868035                       # number of ReadReq MSHR miss ticks (Tick)
system.cpu.dcache.ReadReq.mshrMissLatency::total     14868035                       # number of ReadReq MSHR miss ticks (Tick)
system.cpu.dcache.ReadReq.mshrMissRate::cpu.data     0.038811                       # mshr miss rate for ReadReq accesses (Ratio)
system.cpu.dcache.ReadReq.mshrMissRate::total     0.038811                       # mshr miss rate for ReadReq accesses (Ratio)
system.cpu.dcache.ReadReq.avgMshrMissLatency::cpu.data 54461.666667                       # average ReadReq mshr miss latency ((Tick/Count))
system.cpu.dcache.ReadReq.avgMshrMissLatency::total 54461.666667                       # average ReadReq mshr miss latency ((Tick/Count))
system.cpu.dcache.WriteReq.hits::cpu.data         2617                       # number of WriteReq hits (Count)
system.cpu.dcache.WriteReq.hits::total           2617                       # number of WriteReq hits (Count)
system.cpu.dcache.WriteReq.misses::cpu.data          253                       # number of WriteReq misses (Count)
system.cpu.dcache.WriteReq.misses::total          253                       # number of WriteReq misses (Count)
system.cpu.dcache.WriteReq.missLatency::cpu.data     12763204                       # number of WriteReq miss ticks (Tick)
system.cpu.dcache.WriteReq.missLatency::total     12763204                       # number of WriteReq miss ticks (Tick)
system.cpu.dcache.WriteReq.accesses::cpu.data         2870                       # number of WriteReq accesses(hits+misses) (Count)
system.cpu.dcache.WriteReq.accesses::total         2870                       # number of WriteReq accesses(hits+misses) (Count)
system.cpu.dcache.WriteReq.missRate::cpu.data     0.088153                       # miss rate for WriteReq accesses (Ratio)
system.cpu.dcache.WriteReq.missRate::total     0.088153                       # miss rate for WriteReq accesses (Ratio)
system.cpu.dcache.WriteReq.avgMissLatency::cpu.data 50447.446640                       # average WriteReq miss latency ((Tick/Count))
system.cpu.dcache.WriteReq.avgMissLatency::total 50447.446640                       # average WriteReq miss latency ((Tick/Count))
system.cpu.dcache.WriteReq.mshrHits::cpu.data            4                       # number of WriteReq MSHR hits (Count)
system.cpu.dcache.WriteReq.mshrHits::total            4                       # number of WriteReq MSHR hits (Count)
system.cpu.dcache.WriteReq.mshrMisses::cpu.data          249                       # number of WriteReq MSHR misses (Count)
system.cpu.dcache.WriteReq.mshrMisses::total          249                       # number of WriteReq MSHR misses (Count)
system.cpu.dcache.WriteReq.mshrMissLatency::cpu.data     12354615                       # number of WriteReq MSHR miss ticks (Tick)
system.cpu.dcache.WriteReq.mshrMissLatency::total     12354615                       # number of WriteReq MSHR miss ticks (Tick)
system.cpu.dcache.WriteReq.mshrMissRate::cpu.data     0.086760                       # mshr miss rate for WriteReq accesses (Ratio)
system.cpu.dcache.WriteReq.mshrMissRate::total     0.086760                       # mshr miss rate for WriteReq accesses (Ratio)
system.cpu.dcache.WriteReq.avgMshrMissLatency::cpu.data 49616.927711                       # average WriteReq mshr miss latency ((Tick/Count))
system.cpu.dcache.WriteReq.avgMshrMissLatency::total 49616.927711                       # average WriteReq mshr miss latency ((Tick/Count))
system.cpu.dcache.power_state.pwrStateResidencyTicks::UNDEFINED     43407910                       # Cumulative time (in ticks) in various power states (Tick)
system.cpu.dcache.tags.tagsInUse           299.787075                       # Average ticks per tags in use ((Tick/Count))
system.cpu.dcache.tags.totalRefs                 9124                       # Total number of references to valid blocks. (Count)
system.cpu.dcache.tags.sampledRefs                522                       # Sample count of references to valid blocks. (Count)
system.cpu.dcache.tags.avgRefs              17.478927                       # Average number of references to valid blocks. ((Count/Count))
system.cpu.dcache.tags.warmupTick              137410                       # The tick when the warmup percentage was hit. (Tick)
system.cpu.dcache.tags.occupancies::cpu.data   299.787075                       # Average occupied blocks per tick, per requestor ((Count/Tick))
system.cpu.dcache.tags.avgOccs::cpu.data     0.292761                       # Average percentage of cache occupancy ((Ratio/Tick))
system.cpu.dcache.tags.avgOccs::total        0.292761                       # Average percentage of cache occupancy ((Ratio/Tick))
system.cpu.dcache.tags.occupanciesTaskId::1024          522                       # Occupied blocks per task id (Count)
system.cpu.dcache.tags.ageTaskId_1024::0          105                       # Occupied blocks per task id, per block age (Count)
system.cpu.dcache.tags.ageTaskId_1024::1          417                       # Occupied blocks per task id, per block age (Count)
system.cpu.dcache.tags.ratioOccsTaskId::1024     0.509766                       # Ratio of occupied blocks and all blocks, per task id (Ratio)
system.cpu.dcache.tags.tagAccesses             158986                       # Number of tag accesses (Count)
system.cpu.dcache.tags.dataAccesses            158986                       # Number of data accesses (Count)
system.cpu.dcache.tags.power_state.pwrStateResidencyTicks::UNDEFINED     43407910                       # Cumulative time (in ticks) in various power states (Tick)
system.cpu.decode.idleCycles                    28766                       # Number of cycles decode is idle (Cycle)
system.cpu.decode.blockedCycles                 21160                       # Number of cycles decode is blocked (Cycle)
system.cpu.decode.runCycles                     10427                       # Number of cycles decode is running (Cycle)
system.cpu.decode.unblockCycles                  1394                       # Number of cycles decode is unblocking (Cycle)
system.cpu.decode.squashCycles                   1008                       # Number of cycles decode is squashing (Cycle)
system.cpu.decode.branchResolved                 3031                       # Number of times decode resolved a branch (Count)
system.cpu.decode.branchMispred                   357                       # Number of times decode detected a branch misprediction (Count)
system.cpu.decode.decodedInsts                  79883                       # Number of instructions handled by decode (Count)
system.cpu.decode.squashedInsts                  1704                       # Number of squashed instructions handled by decode (Count)
system.cpu.dtb_walker_cache.blockedCycles::no_mshrs            0                       # number of cycles access was blocked (Cycle)
system.cpu.dtb_walker_cache.blockedCycles::no_targets            0                       # number of cycles access was blocked (Cycle)
system.cpu.dtb_walker_cache.blockedCauses::no_mshrs            0                       # number of times access was blocked (Count)
system.cpu.dtb_walker_cache.blockedCauses::no_targets            0                       # number of times access was blocked (Count)
system.cpu.dtb_walker_cache.avgBlocked::no_mshrs          nan                       # average number of cycles each access was blocked ((Cycle/Count))
system.cpu.dtb_walker_cache.avgBlocked::no_targets          nan                       # average number of cycles each access was blocked ((Cycle/Count))
system.cpu.dtb_walker_cache.replacements            0                       # number of replacements (Count)
system.cpu.dtb_walker_cache.power_state.pwrStateResidencyTicks::UNDEFINED     43407910                       # Cumulative time (in ticks) in various power states (Tick)
system.cpu.dtb_walker_cache.tags.tagsInUse            0                       # Average ticks per tags in use ((Tick/Count))
system.cpu.dtb_walker_cache.tags.totalRefs            0                       # Total number of references to valid blocks. (Count)
system.cpu.dtb_walker_cache.tags.sampledRefs            0                       # Sample count of references to valid blocks. (Count)
system.cpu.dtb_walker_cache.tags.avgRefs          nan                       # Average number of references to valid blocks. ((Count/Count))
system.cpu.dtb_walker_cache.tags.warmupTick            0                       # The tick when the warmup percentage was hit. (Tick)
system.cpu.dtb_walker_cache.tags.tagAccesses            0                       # Number of tag accesses (Count)
system.cpu.dtb_walker_cache.tags.dataAccesses            0                       # Number of data accesses (Count)
system.cpu.dtb_walker_cache.tags.power_state.pwrStateResidencyTicks::UNDEFINED     43407910                       # Cumulative time (in ticks) in various power states (Tick)
system.cpu.fetch.icacheStallCycles              30767                       # Number of cycles fetch is stalled on an Icache miss (Cycle)
system.cpu.fetch.insts                          44959                       # Number of instructions fetch has processed (Count)
system.cpu.fetch.branches                       10030                       # Number of branches that fetch encountered (Count)
system.cpu.fetch.predictedBranches               3489                       # Number of branches that fetch has predicted taken (Count)
system.cpu.fetch.cycles                         30631                       # Number of cycles fetch has run and was not squashing or blocked (Cycle)
system.cpu.fetch.squashCycles                    2710                       # Number of cycles fetch has spent squashing (Cycle)
system.cpu.fetch.pendingQuiesceStallCycles            2                       # Number of stall cycles due to pending quiesce instructions (Cycle)
system.cpu.fetch.cacheLines                      6056                       # Number of cache lines fetched (Count)
system.cpu.fetch.icacheSquashes                   703                       # Number of outstanding Icache misses that were squashed (Count)
system.cpu.fetch.nisnDist::samples              62755                       # Number of instructions fetched each cycle (Total) (Count)
system.cpu.fetch.nisnDist::mean              1.418819                       # Number of instructions fetched each cycle (Total) (Count)
system.cpu.fetch.nisnDist::stdev             2.873897                       # Number of instructions fetched each cycle (Total) (Count)
system.cpu.fetch.nisnDist::underflows               0      0.00%      0.00% # Number of instructions fetched each cycle (Total) (Count)
system.cpu.fetch.nisnDist::0                    49060     78.18%     78.18% # Number of instructions fetched each cycle (Total) (Count)
system.cpu.fetch.nisnDist::1                      596      0.95%     79.13% # Number of instructions fetched each cycle (Total) (Count)
system.cpu.fetch.nisnDist::2                      553      0.88%     80.01% # Number of instructions fetched each cycle (Total) (Count)
system.cpu.fetch.nisnDist::3                      686      1.09%     81.10% # Number of instructions fetched each cycle (Total) (Count)
system.cpu.fetch.nisnDist::4                     1107      1.76%     82.87% # Number of instructions fetched each cycle (Total) (Count)
system.cpu.fetch.nisnDist::5                      988      1.57%     84.44% # Number of instructions fetched each cycle (Total) (Count)
system.cpu.fetch.nisnDist::6                      714      1.14%     85.58% # Number of instructions fetched each cycle (Total) (Count)
system.cpu.fetch.nisnDist::7                      782      1.25%     86.82% # Number of instructions fetched each cycle (Total) (Count)
system.cpu.fetch.nisnDist::8                     8269     13.18%    100.00% # Number of instructions fetched each cycle (Total) (Count)
system.cpu.fetch.nisnDist::overflows                0      0.00%    100.00% # Number of instructions fetched each cycle (Total) (Count)
system.cpu.fetch.nisnDist::min_value                0                       # Number of instructions fetched each cycle (Total) (Count)
system.cpu.fetch.nisnDist::max_value                8                       # Number of instructions fetched each cycle (Total) (Count)
system.cpu.fetch.nisnDist::total                62755                       # Number of instructions fetched each cycle (Total) (Count)
system.cpu.fetch.branchRate                  0.105133                       # Number of branch fetches per cycle (Ratio)
system.cpu.fetch.rate                        0.471254                       # Number of inst fetches per cycle ((Count/Cycle))
system.cpu.icache.demandHits::cpu.inst           5035                       # number of demand (read+write) hits (Count)
system.cpu.icache.demandHits::total              5035                       # number of demand (read+write) hits (Count)
system.cpu.icache.overallHits::cpu.inst          5035                       # number of overall hits (Count)
system.cpu.icache.overallHits::total             5035                       # number of overall hits (Count)
system.cpu.icache.demandMisses::cpu.inst         1021                       # number of demand (read+write) misses (Count)
system.cpu.icache.demandMisses::total            1021                       # number of demand (read+write) misses (Count)
system.cpu.icache.overallMisses::cpu.inst         1021                       # number of overall misses (Count)
system.cpu.icache.overallMisses::total           1021                       # number of overall misses (Count)
system.cpu.icache.demandMissLatency::cpu.inst     48897030                       # number of demand (read+write) miss ticks (Tick)
system.cpu.icache.demandMissLatency::total     48897030                       # number of demand (read+write) miss ticks (Tick)
system.cpu.icache.overallMissLatency::cpu.inst     48897030                       # number of overall miss ticks (Tick)
system.cpu.icache.overallMissLatency::total     48897030                       # number of overall miss ticks (Tick)
system.cpu.icache.demandAccesses::cpu.inst         6056                       # number of demand (read+write) accesses (Count)
system.cpu.icache.demandAccesses::total          6056                       # number of demand (read+write) accesses (Count)
system.cpu.icache.overallAccesses::cpu.inst         6056                       # number of overall (read+write) accesses (Count)
system.cpu.icache.overallAccesses::total         6056                       # number of overall (read+write) accesses (Count)
system.cpu.icache.demandMissRate::cpu.inst     0.168593                       # miss rate for demand accesses (Ratio)
system.cpu.icache.demandMissRate::total      0.168593                       # miss rate for demand accesses (Ratio)
system.cpu.icache.overallMissRate::cpu.inst     0.168593                       # miss rate for overall accesses (Ratio)
system.cpu.icache.overallMissRate::total     0.168593                       # miss rate for overall accesses (Ratio)
system.cpu.icache.demandAvgMissLatency::cpu.inst 47891.312439                       # average overall miss latency ((Cycle/Count))
system.cpu.icache.demandAvgMissLatency::total 47891.312439                       # average overall miss latency ((Cycle/Count))
system.cpu.icache.overallAvgMissLatency::cpu.inst 47891.312439                       # average overall miss latency ((Cycle/Count))
system.cpu.icache.overallAvgMissLatency::total 47891.312439                       # average overall miss latency ((Cycle/Count))
system.cpu.icache.blockedCycles::no_mshrs          134                       # number of cycles access was blocked (Cycle)
system.cpu.icache.blockedCycles::no_targets            0                       # number of cycles access was blocked (Cycle)
system.cpu.icache.blockedCauses::no_mshrs            2                       # number of times access was blocked (Count)
system.cpu.icache.blockedCauses::no_targets            0                       # number of times access was blocked (Count)
system.cpu.icache.avgBlocked::no_mshrs             67                       # average number of cycles each access was blocked ((Cycle/Count))
system.cpu.icache.avgBlocked::no_targets          nan                       # average number of cycles each access was blocked ((Cycle/Count))
system.cpu.icache.writebacks::writebacks           73                       # number of writebacks (Count)
system.cpu.icache.writebacks::total                73                       # number of writebacks (Count)
system.cpu.icache.demandMshrHits::cpu.inst          292                       # number of demand (read+write) MSHR hits (Count)
system.cpu.icache.demandMshrHits::total           292                       # number of demand (read+write) MSHR hits (Count)
system.cpu.icache.overallMshrHits::cpu.inst          292                       # number of overall MSHR hits (Count)
system.cpu.icache.overallMshrHits::total          292                       # number of overall MSHR hits (Count)
system.cpu.icache.demandMshrMisses::cpu.inst          729                       # number of demand (read+write) MSHR misses (Count)
system.cpu.icache.demandMshrMisses::total          729                       # number of demand (read+write) MSHR misses (Count)
system.cpu.icache.overallMshrMisses::cpu.inst          729                       # number of overall MSHR misses (Count)
system.cpu.icache.overallMshrMisses::total          729                       # number of overall MSHR misses (Count)
system.cpu.icache.demandMshrMissLatency::cpu.inst     37532495                       # number of demand (read+write) MSHR miss ticks (Tick)
system.cpu.icache.demandMshrMissLatency::total     37532495                       # number of demand (read+write) MSHR miss ticks (Tick)
system.cpu.icache.overallMshrMissLatency::cpu.inst     37532495                       # number of overall MSHR miss ticks (Tick)
system.cpu.icache.overallMshrMissLatency::total     37532495                       # number of overall MSHR miss ticks (Tick)
system.cpu.icache.demandMshrMissRate::cpu.inst     0.120376                       # mshr miss ratio for demand accesses (Ratio)
system.cpu.icache.demandMshrMissRate::total     0.120376                       # mshr miss ratio for demand accesses (Ratio)
system.cpu.icache.overallMshrMissRate::cpu.inst     0.120376                       # mshr miss ratio for overall accesses (Ratio)
system.cpu.icache.overallMshrMissRate::total     0.120376                       # mshr miss ratio for overall accesses (Ratio)
system.cpu.icache.demandAvgMshrMissLatency::cpu.inst 51484.903978                       # average overall mshr miss latency ((Cycle/Count))
system.cpu.icache.demandAvgMshrMissLatency::total 51484.903978                       # average overall mshr miss latency ((Cycle/Count))
system.cpu.icache.overallAvgMshrMissLatency::cpu.inst 51484.903978                       # average overall mshr miss latency ((Cycle/Count))
system.cpu.icache.overallAvgMshrMissLatency::total 51484.903978                       # average overall mshr miss latency ((Cycle/Count))
system.cpu.icache.replacements                     73                       # number of replacements (Count)
system.cpu.icache.ReadReq.hits::cpu.inst         5035                       # number of ReadReq hits (Count)
system.cpu.icache.ReadReq.hits::total            5035                       # number of ReadReq hits (Count)
system.cpu.icache.ReadReq.misses::cpu.inst         1021                       # number of ReadReq misses (Count)
system.cpu.icache.ReadReq.misses::total          1021                       # number of ReadReq misses (Count)
system.cpu.icache.ReadReq.missLatency::cpu.inst     48897030                       # number of ReadReq miss ticks (Tick)
system.cpu.icache.ReadReq.missLatency::total     48897030                       # number of ReadReq miss ticks (Tick)
system.cpu.icache.ReadReq.accesses::cpu.inst         6056                       # number of ReadReq accesses(hits+misses) (Count)
system.cpu.icache.ReadReq.accesses::total         6056                       # number of ReadReq accesses(hits+misses) (Count)
system.cpu.icache.ReadReq.missRate::cpu.inst     0.168593                       # miss rate for ReadReq accesses (Ratio)
system.cpu.icache.ReadReq.missRate::total     0.168593                       # miss rate for ReadReq accesses (Ratio)
system.cpu.icache.ReadReq.avgMissLatency::cpu.inst 47891.312439                       # average ReadReq miss latency ((Tick/Count))
system.cpu.icache.ReadReq.avgMissLatency::total 47891.312439                       # average ReadReq miss latency ((Tick/Count))
system.cpu.icache.ReadReq.mshrHits::cpu.inst          292                       # number of ReadReq MSHR hits (Count)
system.cpu.icache.ReadReq.mshrHits::total          292                       # number of ReadReq MSHR hits (Count)
system.cpu.icache.ReadReq.mshrMisses::cpu.inst          729                       # number of ReadReq MSHR misses (Count)
system.cpu.icache.ReadReq.mshrMisses::total          729                       # number of ReadReq MSHR misses (Count)
system.cpu.icache.ReadReq.mshrMissLatency::cpu.inst     37532495                       # number of ReadReq MSHR miss ticks (Tick)
system.cpu.icache.ReadReq.mshrMissLatency::total     37532495                       # number of ReadReq MSHR miss ticks (Tick)
system.cpu.icache.ReadReq.mshrMissRate::cpu.inst     0.120376                       # mshr miss rate for ReadReq accesses (Ratio)
system.cpu.icache.ReadReq.mshrMissRate::total     0.120376                       # mshr miss rate for ReadReq accesses (Ratio)
system.cpu.icache.ReadReq.avgMshrMissLatency::cpu.inst 51484.903978                       # average ReadReq mshr miss latency ((Tick/Count))
system.cpu.icache.ReadReq.avgMshrMissLatency::total 51484.903978                       # average ReadReq mshr miss latency ((Tick/Count))
system.cpu.icache.power_state.pwrStateResidencyTicks::UNDEFINED     43407910                       # Cumulative time (in ticks) in various power states (Tick)
system.cpu.icache.tags.tagsInUse           377.502354                       # Average ticks per tags in use ((Tick/Count))
system.cpu.icache.tags.totalRefs                 5764                       # Total number of references to valid blocks. (Count)
system.cpu.icache.tags.sampledRefs                729                       # Sample count of references to valid blocks. (Count)
system.cpu.icache.tags.avgRefs               7.906722                       # Average number of references to valid blocks. ((Count/Count))
system.cpu.icache.tags.warmupTick               70980                       # The tick when the warmup percentage was hit. (Tick)
system.cpu.icache.tags.occupancies::cpu.inst   377.502354                       # Average occupied blocks per tick, per requestor ((Count/Tick))
system.cpu.icache.tags.avgOccs::cpu.inst     0.368655                       # Average percentage of cache occupancy ((Ratio/Tick))
system.cpu.icache.tags.avgOccs::total        0.368655                       # Average percentage of cache occupancy ((Ratio/Tick))
system.cpu.icache.tags.occupanciesTaskId::1024          656                       # Occupied blocks per task id (Count)
system.cpu.icache.tags.ageTaskId_1024::0          115                       # Occupied blocks per task id, per block age (Count)
system.cpu.icache.tags.ageTaskId_1024::1          541                       # Occupied blocks per task id, per block age (Count)
system.cpu.icache.tags.ratioOccsTaskId::1024     0.640625                       # Ratio of occupied blocks and all blocks, per task id (Ratio)
system.cpu.icache.tags.tagAccesses              12841                       # Number of tag accesses (Count)
system.cpu.icache.tags.dataAccesses             12841                       # Number of data accesses (Count)
system.cpu.icache.tags.power_state.pwrStateResidencyTicks::UNDEFINED     43407910                       # Cumulative time (in ticks) in various power states (Tick)
system.cpu.iew.idleCycles                           0                       # Number of cycles IEW is idle (Cycle)
system.cpu.iew.squashCycles                      1008                       # Number of cycles IEW is squashing (Cycle)
system.cpu.iew.blockCycles                       9281                       # Number of cycles IEW is blocking (Cycle)
system.cpu.iew.unblockCycles                      153                       # Number of cycles IEW is unblocking (Cycle)
system.cpu.iew.dispatchedInsts                  71204                       # Number of instructions dispatched to IQ (Count)
system.cpu.iew.dispSquashedInsts                  163                       # Number of squashed instructions skipped by dispatch (Count)
system.cpu.iew.dispLoadInsts                     8387                       # Number of dispatched load instructions (Count)
system.cpu.iew.dispStoreInsts                    4342                       # Number of dispatched store instructions (Count)
system.cpu.iew.dispNonSpecInsts                     1                       # Number of dispatched non-speculative instructions (Count)
system.cpu.iew.iqFullEvents                        82                       # Number of times the IQ has become full, causing a stall (Count)
system.cpu.iew.lsqFullEvents                        9                       # Number of times the LSQ has become full, causing a stall (Count)
system.cpu.iew.memOrderViolationEvents             45                       # Number of memory order violations (Count)
system.cpu.iew.predictedTakenIncorrect            153                       # Number of branches that were predicted taken incorrectly (Count)
system.cpu.iew.predictedNotTakenIncorrect          996                       # Number of branches that were predicted not taken incorrectly (Count)
system.cpu.iew.branchMispredicts                 1149                       # Number of branch mispredicts detected at execute (Count)
system.cpu.iew.instsToCommit                    59616                       # Cumulative count of insts sent to commit (Count)
system.cpu.iew.writebackCount                   59217                       # Cumulative count of insts written-back (Count)
system.cpu.iew.producerInst                     42952                       # Number of instructions producing a value (Count)
system.cpu.iew.consumerInst                     71364                       # Number of instructions consuming a value (Count)
system.cpu.iew.wbRate                        0.620704                       # Insts written-back per cycle ((Count/Cycle))
system.cpu.iew.wbFanout                      0.601872                       # Average fanout of values written-back ((Count/Count))
system.cpu.interrupts.clk_domain.clock           7280                       # Clock period in ticks (Tick)
system.cpu.itb_walker_cache.blockedCycles::no_mshrs            0                       # number of cycles access was blocked (Cycle)
system.cpu.itb_walker_cache.blockedCycles::no_targets            0                       # number of cycles access was blocked (Cycle)
system.cpu.itb_walker_cache.blockedCauses::no_mshrs            0                       # number of times access was blocked (Count)
system.cpu.itb_walker_cache.blockedCauses::no_targets            0                       # number of times access was blocked (Count)
system.cpu.itb_walker_cache.avgBlocked::no_mshrs          nan                       # average number of cycles each access was blocked ((Cycle/Count))
system.cpu.itb_walker_cache.avgBlocked::no_targets          nan                       # average number of cycles each access was blocked ((Cycle/Count))
system.cpu.itb_walker_cache.replacements            0                       # number of replacements (Count)
system.cpu.itb_walker_cache.power_state.pwrStateResidencyTicks::UNDEFINED     43407910                       # Cumulative time (in ticks) in various power states (Tick)
system.cpu.itb_walker_cache.tags.tagsInUse            0                       # Average ticks per tags in use ((Tick/Count))
system.cpu.itb_walker_cache.tags.totalRefs            0                       # Total number of references to valid blocks. (Count)
system.cpu.itb_walker_cache.tags.sampledRefs            0                       # Sample count of references to valid blocks. (Count)
system.cpu.itb_walker_cache.tags.avgRefs          nan                       # Average number of references to valid blocks. ((Count/Count))
system.cpu.itb_walker_cache.tags.warmupTick            0                       # The tick when the warmup percentage was hit. (Tick)
system.cpu.itb_walker_cache.tags.tagAccesses            0                       # Number of tag accesses (Count)
system.cpu.itb_walker_cache.tags.dataAccesses            0                       # Number of data accesses (Count)
system.cpu.itb_walker_cache.tags.power_state.pwrStateResidencyTicks::UNDEFINED     43407910                       # Cumulative time (in ticks) in various power states (Tick)
system.cpu.lsq0.forwLoads                         308                       # Number of loads that had data forwarded from stores (Count)
system.cpu.lsq0.squashedLoads                    3993                       # Number of loads squashed (Count)
system.cpu.lsq0.ignoredResponses                    5                       # Number of memory responses ignored because the instruction is squashed (Count)
system.cpu.lsq0.memOrderViolation                  45                       # Number of memory ordering violations (Count)
system.cpu.lsq0.squashedStores                   1473                       # Number of stores squashed (Count)
system.cpu.lsq0.rescheduledLoads                    0                       # Number of loads that were rescheduled (Count)
system.cpu.lsq0.blockedByCache                     53                       # Number of times an access to memory failed due to the cache being blocked (Count)
system.cpu.lsq0.loadToUse::samples               4394                       # Distribution of cycle latency between the first time a load is issued and its completion (Unspecified)
system.cpu.lsq0.loadToUse::mean             21.090123                       # Distribution of cycle latency between the first time a load is issued and its completion (Unspecified)
system.cpu.lsq0.loadToUse::stdev            45.283950                       # Distribution of cycle latency between the first time a load is issued and its completion (Unspecified)
system.cpu.lsq0.loadToUse::0-9                   3655     83.18%     83.18% # Distribution of cycle latency between the first time a load is issued and its completion (Unspecified)
system.cpu.lsq0.loadToUse::10-19                    6      0.14%     83.32% # Distribution of cycle latency between the first time a load is issued and its completion (Unspecified)
system.cpu.lsq0.loadToUse::20-29                    5      0.11%     83.43% # Distribution of cycle latency between the first time a load is issued and its completion (Unspecified)
system.cpu.lsq0.loadToUse::30-39                   10      0.23%     83.66% # Distribution of cycle latency between the first time a load is issued and its completion (Unspecified)
system.cpu.lsq0.loadToUse::40-49                    3      0.07%     83.73% # Distribution of cycle latency between the first time a load is issued and its completion (Unspecified)
system.cpu.lsq0.loadToUse::50-59                    7      0.16%     83.89% # Distribution of cycle latency between the first time a load is issued and its completion (Unspecified)
system.cpu.lsq0.loadToUse::60-69                    7      0.16%     84.05% # Distribution of cycle latency between the first time a load is issued and its completion (Unspecified)
system.cpu.lsq0.loadToUse::70-79                    9      0.20%     84.25% # Distribution of cycle latency between the first time a load is issued and its completion (Unspecified)
system.cpu.lsq0.loadToUse::80-89                   25      0.57%     84.82% # Distribution of cycle latency between the first time a load is issued and its completion (Unspecified)
system.cpu.lsq0.loadToUse::90-99                  192      4.37%     89.19% # Distribution of cycle latency between the first time a load is issued and its completion (Unspecified)
system.cpu.lsq0.loadToUse::100-109                284      6.46%     95.65% # Distribution of cycle latency between the first time a load is issued and its completion (Unspecified)
system.cpu.lsq0.loadToUse::110-119                 40      0.91%     96.56% # Distribution of cycle latency between the first time a load is issued and its completion (Unspecified)
system.cpu.lsq0.loadToUse::120-129                 25      0.57%     97.13% # Distribution of cycle latency between the first time a load is issued and its completion (Unspecified)
system.cpu.lsq0.loadToUse::130-139                 36      0.82%     97.95% # Distribution of cycle latency between the first time a load is issued and its completion (Unspecified)
[...]
system.mem_ctrls.dram.bwRead::total        1844456460                       # Total read bandwidth from this memory ((Byte/Second))
system.mem_ctrls.dram.bwInstRead::cpu.inst   1074827146                       # Instruction read bandwidth from this memory ((Byte/Second))
system.mem_ctrls.dram.bwInstRead::total    1074827146                       # Instruction read bandwidth from this memory ((Byte/Second))
system.mem_ctrls.dram.bwTotal::cpu.inst    1074827146                       # Total bandwidth to/from this memory ((Byte/Second))
system.mem_ctrls.dram.bwTotal::cpu.data     769629314                       # Total bandwidth to/from this memory ((Byte/Second))
system.mem_ctrls.dram.bwTotal::total       1844456460                       # Total bandwidth to/from this memory ((Byte/Second))
system.mem_ctrls.dram.readBursts                 1248                       # Number of DRAM read bursts (Count)
system.mem_ctrls.dram.writeBursts                  48                       # Number of DRAM write bursts (Count)
system.mem_ctrls.dram.perBankRdBursts::0           69                       # Per bank write bursts (Count)
system.mem_ctrls.dram.perBankRdBursts::1           94                       # Per bank write bursts (Count)
system.mem_ctrls.dram.perBankRdBursts::2           27                       # Per bank write bursts (Count)
system.mem_ctrls.dram.perBankRdBursts::3            3                       # Per bank write bursts (Count)
system.mem_ctrls.dram.perBankRdBursts::4           35                       # Per bank write bursts (Count)
system.mem_ctrls.dram.perBankRdBursts::5           60                       # Per bank write bursts (Count)
system.mem_ctrls.dram.perBankRdBursts::6           77                       # Per bank write bursts (Count)
system.mem_ctrls.dram.perBankRdBursts::7          125                       # Per bank write bursts (Count)
system.mem_ctrls.dram.perBankRdBursts::8           50                       # Per bank write bursts (Count)
system.mem_ctrls.dram.perBankRdBursts::9          131                       # Per bank write bursts (Count)
system.mem_ctrls.dram.perBankRdBursts::10           66                       # Per bank write bursts (Count)
system.mem_ctrls.dram.perBankRdBursts::11          141                       # Per bank write bursts (Count)
system.mem_ctrls.dram.perBankRdBursts::12          106                       # Per bank write bursts (Count)
system.mem_ctrls.dram.perBankRdBursts::13           49                       # Per bank write bursts (Count)
system.mem_ctrls.dram.perBankRdBursts::14           94                       # Per bank write bursts (Count)
system.mem_ctrls.dram.perBankRdBursts::15          121                       # Per bank write bursts (Count)
system.mem_ctrls.dram.perBankWrBursts::0            9                       # Per bank write bursts (Count)
system.mem_ctrls.dram.perBankWrBursts::1            0                       # Per bank write bursts (Count)
system.mem_ctrls.dram.perBankWrBursts::2            0                       # Per bank write bursts (Count)
system.mem_ctrls.dram.perBankWrBursts::3            0                       # Per bank write bursts (Count)
system.mem_ctrls.dram.perBankWrBursts::4            0                       # Per bank write bursts (Count)
system.mem_ctrls.dram.perBankWrBursts::5            7                       # Per bank write bursts (Count)
system.mem_ctrls.dram.perBankWrBursts::6            1                       # Per bank write bursts (Count)
system.mem_ctrls.dram.perBankWrBursts::7            2                       # Per bank write bursts (Count)
system.mem_ctrls.dram.perBankWrBursts::8            1                       # Per bank write bursts (Count)
system.mem_ctrls.dram.perBankWrBursts::9            0                       # Per bank write bursts (Count)
system.mem_ctrls.dram.perBankWrBursts::10            0                       # Per bank write bursts (Count)
system.mem_ctrls.dram.perBankWrBursts::11           16                       # Per bank write bursts (Count)
system.mem_ctrls.dram.perBankWrBursts::12            4                       # Per bank write bursts (Count)
system.mem_ctrls.dram.perBankWrBursts::13            7                       # Per bank write bursts (Count)
system.mem_ctrls.dram.perBankWrBursts::14            1                       # Per bank write bursts (Count)
system.mem_ctrls.dram.perBankWrBursts::15            0                       # Per bank write bursts (Count)
system.mem_ctrls.dram.totQLat                 9663935                       # Total ticks spent queuing (Tick)
system.mem_ctrls.dram.totBusLat               6240000                       # Total ticks spent in databus transfers (Tick)
system.mem_ctrls.dram.totMemAccLat           33063935                       # Total ticks spent from burst creation until serviced by the DRAM (Tick)
system.mem_ctrls.dram.avgQLat                 7743.54                       # Average queueing delay per DRAM burst ((Tick/Count))
system.mem_ctrls.dram.avgBusLat               5000.00                       # Average bus latency per DRAM burst ((Tick/Count))
system.mem_ctrls.dram.avgMemAccLat           26493.54                       # Average memory access latency per DRAM burst ((Tick/Count))
system.mem_ctrls.dram.readRowHits                1043                       # Number of row buffer hits during reads (Count)
system.mem_ctrls.dram.writeRowHits                 39                       # Number of row buffer hits during writes (Count)
system.mem_ctrls.dram.readRowHitRate            83.57                       # Row buffer hit rate for reads (Ratio)
system.mem_ctrls.dram.writeRowHitRate           81.25                       # Row buffer hit rate for writes (Ratio)
system.mem_ctrls.dram.bytesPerActivate::samples          201                       # Bytes accessed per row activation (Byte)
system.mem_ctrls.dram.bytesPerActivate::mean   394.189055                       # Bytes accessed per row activation (Byte)
system.mem_ctrls.dram.bytesPerActivate::gmean   237.419656                       # Bytes accessed per row activation (Byte)
system.mem_ctrls.dram.bytesPerActivate::stdev   364.713126                       # Bytes accessed per row activation (Byte)
system.mem_ctrls.dram.bytesPerActivate::0-127           54     26.87%     26.87% # Bytes accessed per row activation (Byte)
system.mem_ctrls.dram.bytesPerActivate::128-255           51     25.37%     52.24% # Bytes accessed per row activation (Byte)
system.mem_ctrls.dram.bytesPerActivate::256-383           18      8.96%     61.19% # Bytes accessed per row activation (Byte)
system.mem_ctrls.dram.bytesPerActivate::384-511            9      4.48%     65.67% # Bytes accessed per row activation (Byte)
system.mem_ctrls.dram.bytesPerActivate::512-639            9      4.48%     70.15% # Bytes accessed per row activation (Byte)
system.mem_ctrls.dram.bytesPerActivate::640-767           12      5.97%     76.12% # Bytes accessed per row activation (Byte)
system.mem_ctrls.dram.bytesPerActivate::768-895            8      3.98%     80.10% # Bytes accessed per row activation (Byte)
system.mem_ctrls.dram.bytesPerActivate::896-1023            7      3.48%     83.58% # Bytes accessed per row activation (Byte)
system.mem_ctrls.dram.bytesPerActivate::1024-1151           33     16.42%    100.00% # Bytes accessed per row activation (Byte)
system.mem_ctrls.dram.bytesPerActivate::total          201                       # Bytes accessed per row activation (Byte)
system.mem_ctrls.dram.bytesRead                 79872                       # Total bytes read (Byte)
system.mem_ctrls.dram.bytesWritten               3072                       # Total bytes written (Byte)
system.mem_ctrls.dram.avgRdBW             1840.033303                       # Average DRAM read bandwidth in MiBytes/s ((Byte/Second))
system.mem_ctrls.dram.avgWrBW               70.770512                       # Average DRAM write bandwidth in MiBytes/s ((Byte/Second))
system.mem_ctrls.dram.peakBW                 12800.00                       # Theoretical peak bandwidth in MiByte/s ((Byte/Second))
system.mem_ctrls.dram.busUtil                   14.93                       # Data bus utilization in percentage (Ratio)
system.mem_ctrls.dram.busUtilRead               14.38                       # Data bus utilization in percentage for reads (Ratio)
system.mem_ctrls.dram.busUtilWrite               0.55                       # Data bus utilization in percentage for writes (Ratio)
system.mem_ctrls.dram.pageHitRate               83.49                       # Row buffer hit rate, read and write combined (Ratio)
system.mem_ctrls.dram.power_state.pwrStateResidencyTicks::UNDEFINED     43407910                       # Cumulative time (in ticks) in various power states (Tick)
system.mem_ctrls.dram.rank0.actEnergy          614040                       # Energy for activate commands per rank (pJ) (Joule)
system.mem_ctrls.dram.rank0.preEnergy          299805                       # Energy for precharge commands per rank (pJ) (Joule)
system.mem_ctrls.dram.rank0.readEnergy        3498600                       # Energy for read commands per rank (pJ) (Joule)
system.mem_ctrls.dram.rank0.writeEnergy         99180                       # Energy for write commands per rank (pJ) (Joule)
system.mem_ctrls.dram.rank0.refreshEnergy 3073200.000000                       # Energy for refresh commands per rank (pJ) (Joule)
system.mem_ctrls.dram.rank0.actBackEnergy     19268280                       # Energy for active background per rank (pJ) (Joule)
system.mem_ctrls.dram.rank0.preBackEnergy       443040                       # Energy for precharge background per rank (pJ) (Joule)
system.mem_ctrls.dram.rank0.actPowerDownEnergy            0                       # Energy for active power-down per rank (pJ) (Joule)
system.mem_ctrls.dram.rank0.prePowerDownEnergy            0                       # Energy for precharge power-down per rank (pJ) (Joule)
system.mem_ctrls.dram.rank0.selfRefreshEnergy            0                       # Energy for self refresh per rank (pJ) (Joule)
system.mem_ctrls.dram.rank0.totalEnergy      27296145                       # Total energy per rank (pJ) (Joule)
system.mem_ctrls.dram.rank0.averagePower   628.828824                       # Core power per rank (mW) (Watt)
system.mem_ctrls.dram.rank0.totalIdleTime            0                       # Total Idle time Per DRAM Rank (Tick)
system.mem_ctrls.dram.rank0.pwrStateTime::IDLE      1014415                       # Time in different power states (Tick)
system.mem_ctrls.dram.rank0.pwrStateTime::REF      1300000                       # Time in different power states (Tick)
system.mem_ctrls.dram.rank0.pwrStateTime::SREF            0                       # Time in different power states (Tick)
system.mem_ctrls.dram.rank0.pwrStateTime::PRE_PDN            0                       # Time in different power states (Tick)
system.mem_ctrls.dram.rank0.pwrStateTime::ACT     41093495                       # Time in different power states (Tick)
system.mem_ctrls.dram.rank0.pwrStateTime::ACT_PDN            0                       # Time in different power states (Tick)
system.mem_ctrls.dram.rank1.actEnergy          913920                       # Energy for activate commands per rank (pJ) (Joule)
system.mem_ctrls.dram.rank1.preEnergy          462990                       # Energy for precharge commands per rank (pJ) (Joule)
system.mem_ctrls.dram.rank1.readEnergy        5412120                       # Energy for read commands per rank (pJ) (Joule)
system.mem_ctrls.dram.rank1.writeEnergy        151380                       # Energy for write commands per rank (pJ) (Joule)
system.mem_ctrls.dram.rank1.refreshEnergy 3073200.000000                       # Energy for refresh commands per rank (pJ) (Joule)
system.mem_ctrls.dram.rank1.actBackEnergy     19650750                       # Energy for active background per rank (pJ) (Joule)
system.mem_ctrls.dram.rank1.preBackEnergy       120960                       # Energy for precharge background per rank (pJ) (Joule)
system.mem_ctrls.dram.rank1.actPowerDownEnergy            0                       # Energy for active power-down per rank (pJ) (Joule)
system.mem_ctrls.dram.rank1.prePowerDownEnergy            0                       # Energy for precharge power-down per rank (pJ) (Joule)
system.mem_ctrls.dram.rank1.selfRefreshEnergy            0                       # Energy for self refresh per rank (pJ) (Joule)
system.mem_ctrls.dram.rank1.totalEnergy      29785320                       # Total energy per rank (pJ) (Joule)
system.mem_ctrls.dram.rank1.averagePower   686.172635                       # Core power per rank (mW) (Watt)
system.mem_ctrls.dram.rank1.totalIdleTime            0                       # Total Idle time Per DRAM Rank (Tick)
system.mem_ctrls.dram.rank1.pwrStateTime::IDLE       135140                       # Time in different power states (Tick)
system.mem_ctrls.dram.rank1.pwrStateTime::REF      1300000                       # Time in different power states (Tick)
system.mem_ctrls.dram.rank1.pwrStateTime::SREF            0                       # Time in different power states (Tick)
system.mem_ctrls.dram.rank1.pwrStateTime::PRE_PDN            0                       # Time in different power states (Tick)
system.mem_ctrls.dram.rank1.pwrStateTime::ACT     41972770                       # Time in different power states (Tick)
system.mem_ctrls.dram.rank1.pwrStateTime::ACT_PDN            0                       # Time in different power states (Tick)
system.mem_ctrls.power_state.pwrStateResidencyTicks::UNDEFINED     43407910                       # Cumulative time (in ticks) in various power states (Tick)
system.membus.transDist::ReadResp                1002                       # Transaction distribution (Count)
system.membus.transDist::WritebackClean            73                       # Transaction distribution (Count)
system.membus.transDist::ReadExReq                249                       # Transaction distribution (Count)
system.membus.transDist::ReadExResp               249                       # Transaction distribution (Count)
system.membus.transDist::ReadCleanReq             729                       # Transaction distribution (Count)
system.membus.transDist::ReadSharedReq            273                       # Transaction distribution (Count)
system.membus.pktCount_system.cpu.icache.mem_side_port::system.mem_ctrls.port         1531                       # Packet count per connected requestor and responder (Count)
system.membus.pktCount_system.cpu.icache.mem_side_port::total         1531                       # Packet count per connected requestor and responder (Count)
system.membus.pktCount_system.cpu.dcache.mem_side_port::system.mem_ctrls.port         1044                       # Packet count per connected requestor and responder (Count)
system.membus.pktCount_system.cpu.dcache.mem_side_port::total         1044                       # Packet count per connected requestor and responder (Count)
system.membus.pktCount::total                    2575                       # Packet count per connected requestor and responder (Count)
system.membus.pktSize_system.cpu.icache.mem_side_port::system.mem_ctrls.port        51328                       # Cumulative packet size per connected requestor and responder (Byte)
system.membus.pktSize_system.cpu.icache.mem_side_port::total        51328                       # Cumulative packet size per connected requestor and responder (Byte)
system.membus.pktSize_system.cpu.dcache.mem_side_port::system.mem_ctrls.port        33408                       # Cumulative packet size per connected requestor and responder (Byte)
system.membus.pktSize_system.cpu.dcache.mem_side_port::total        33408                       # Cumulative packet size per connected requestor and responder (Byte)
system.membus.pktSize::total                    84736                       # Cumulative packet size per connected requestor and responder (Byte)
system.membus.snoops                                0                       # Total snoops (Count)
system.membus.snoopTraffic                          0                       # Total snoop traffic (Byte)
system.membus.snoopFanout::samples               1251                       # Request fanout histogram (Count)
system.membus.snoopFanout::mean              0.000799                       # Request fanout histogram (Count)
system.membus.snoopFanout::stdev             0.028273                       # Request fanout histogram (Count)
system.membus.snoopFanout::underflows               0      0.00%      0.00% # Request fanout histogram (Count)
system.membus.snoopFanout::0                     1250     99.92%     99.92% # Request fanout histogram (Count)
system.membus.snoopFanout::1                        1      0.08%    100.00% # Request fanout histogram (Count)
system.membus.snoopFanout::2                        0      0.00%    100.00% # Request fanout histogram (Count)
system.membus.snoopFanout::3                        0      0.00%    100.00% # Request fanout histogram (Count)
system.membus.snoopFanout::4                        0      0.00%    100.00% # Request fanout histogram (Count)
system.membus.snoopFanout::overflows                0      0.00%    100.00% # Request fanout histogram (Count)
system.membus.snoopFanout::min_value                0                       # Request fanout histogram (Count)
system.membus.snoopFanout::max_value                1                       # Request fanout histogram (Count)
system.membus.snoopFanout::total                 1251                       # Request fanout histogram (Count)
system.membus.power_state.pwrStateResidencyTicks::UNDEFINED     43407910                       # Cumulative time (in ticks) in various power states (Tick)
system.membus.reqLayer2.occupancy              735280                       # Layer occupancy (ticks) (Tick)
system.membus.reqLayer2.utilization               0.0                       # Layer utilization (Ratio)
system.membus.respLayer1.occupancy            1910010                       # Layer occupancy (ticks) (Tick)
system.membus.respLayer1.utilization              0.0                       # Layer utilization (Ratio)
system.membus.respLayer2.occupancy            1356405                       # Layer occupancy (ticks) (Tick)
system.membus.respLayer2.utilization              0.0                       # Layer utilization (Ratio)
system.membus.snoop_filter.totRequests           1324                       # Total number of requests made to the snoop filter. (Count)
system.membus.snoop_filter.hitSingleRequests           73                       # Number of requests hitting in the snoop filter with a single holder of the requested data. (Count)
system.membus.snoop_filter.hitMultiRequests            1                       # Number of requests hitting in the snoop filter with multiple (>1) holders of the requested data. (Count)
system.membus.snoop_filter.totSnoops                0                       # Total number of snoops made to the snoop filter. (Count)
system.membus.snoop_filter.hitSingleSnoops            0                       # Number of snoops hitting in the snoop filter with a single holder of the requested data. (Count)
system.membus.snoop_filter.hitMultiSnoops            0                       # Number of snoops hitting in the snoop filter with multiple (>1) holders of the requested data. (Count)
system.voltage_domain.voltage                       1                       # Voltage in Volts (Volt)
system.workload.inst.arm                            0                       # number of arm instructions executed (Count)
system.workload.inst.quiesce                        0                       # number of quiesce instructions executed (Count)

---------- End Simulation Statistics   ----------
