
---------- Begin Simulation Statistics ----------
simSeconds                                   0.000633                       # Number of seconds simulated (Second)
simTicks                                    632908000                       # Number of ticks simulated (Tick)
finalTick                                   632908000                       # Number of ticks from beginning of simulation (restored from checkpoints and never reset) (Tick)
simFreq                                  1000000000000                       # The number of ticks per simulated second ((Tick/Second))
hostSeconds                                      3.82                       # Real time elapsed on the host (Second)
hostTickRate                                165839516                       # The number of ticks simulated per host second (ticks/s) ((Tick/Second))
hostMemory                                    2260436                       # Number of bytes of host memory used (Byte)
simInsts                                      1927430                       # Number of instructions simulated (Count)
simOps                                        2023789                       # Number of ops (including micro ops) simulated (Count)
hostInstRate                                   505025                       # Simulator instruction rate (inst/s) ((Count/Second))
hostOpRate                                     530272                       # Simulator op (including micro ops) rate (op/s) ((Count/Second))
system.clk_domain.clock                          1000                       # Clock period in ticks (Tick)
system.cpu_cluster.clk_domain.clock               250                       # Clock period in ticks (Tick)
system.cpu_cluster.cpus.numCycles             2531632                       # Number of cpu cycles simulated (Cycle)
system.cpu_cluster.cpus.numWorkItemsStarted            0                       # Number of work items this cpu started (Count)
system.cpu_cluster.cpus.numWorkItemsCompleted            0                       # Number of work items this cpu completed (Count)
system.cpu_cluster.cpus.numInsts              1927430                       # Number of instructions committed (Count)
system.cpu_cluster.cpus.numOps                2023789                       # Number of ops (including micro ops) committed (Count)
system.cpu_cluster.cpus.numDiscardedOps          1828                       # Number of ops (including micro ops) which were discarded before commit (Count)
system.cpu_cluster.cpus.numFetchSuspends            0                       # Number of times Execute suspended instruction fetching (Count)
system.cpu_cluster.cpus.cpi                  1.313475                       # CPI: cycles per instruction ((Cycle/Count))
system.cpu_cluster.cpus.ipc                  0.761339                       # IPC: instructions per cycle ((Count/Cycle))
system.cpu_cluster.cpus.committedInstType_0::No_OpClass            2      0.00%      0.00% # Class of committed instruction (Count)
system.cpu_cluster.cpus.committedInstType_0::IntAlu      1297273     64.10%     64.10% # Class of committed instruction (Count)
system.cpu_cluster.cpus.committedInstType_0::IntMult         1249      0.06%     64.16% # Class of committed instruction (Count)
system.cpu_cluster.cpus.committedInstType_0::IntDiv            2      0.00%     64.16% # Class of committed instruction (Count)
system.cpu_cluster.cpus.committedInstType_0::FloatAdd        60000      2.96%     67.13% # Class of committed instruction (Count)
system.cpu_cluster.cpus.committedInstType_0::FloatCmp        20000      0.99%     68.12% # Class of committed instruction (Count)
system.cpu_cluster.cpus.committedInstType_0::FloatCvt        40000      1.98%     70.09% # Class of committed instruction (Count)
system.cpu_cluster.cpus.committedInstType_0::FloatMult        40000      1.98%     72.07% # Class of committed instruction (Count)
system.cpu_cluster.cpus.committedInstType_0::FloatMultAcc            0      0.00%     72.07% # Class of committed instruction (Count)
system.cpu_cluster.cpus.committedInstType_0::FloatDiv            0      0.00%     72.07% # Class of committed instruction (Count)
system.cpu_cluster.cpus.committedInstType_0::FloatMisc        20001      0.99%     73.06% # Class of committed instruction (Count)
system.cpu_cluster.cpus.committedInstType_0::FloatSqrt            0      0.00%     73.06% # Class of committed instruction (Count)
system.cpu_cluster.cpus.committedInstType_0::SimdAdd           11      0.00%     73.06% # Class of committed instruction (Count)
system.cpu_cluster.cpus.committedInstType_0::SimdAddAcc            0      0.00%     73.06% # Class of committed instruction (Count)
system.cpu_cluster.cpus.committedInstType_0::SimdAlu            8      0.00%     73.06% # Class of committed instruction (Count)
system.cpu_cluster.cpus.committedInstType_0::SimdCmp            8      0.00%     73.06% # Class of committed instruction (Count)
system.cpu_cluster.cpus.committedInstType_0::SimdCvt            0      0.00%     73.06% # Class of committed instruction (Count)
system.cpu_cluster.cpus.committedInstType_0::SimdMisc        20007      0.99%     74.05% # Class of committed instruction (Count)
system.cpu_cluster.cpus.committedInstType_0::SimdMult            0      0.00%     74.05% # Class of committed instruction (Count)
system.cpu_cluster.cpus.committedInstType_0::SimdMultAcc            0      0.00%     74.05% # Class of committed instruction (Count)
system.cpu_cluster.cpus.committedInstType_0::SimdShift            0      0.00%     74.05% # Class of committed instruction (Count)
system.cpu_cluster.cpus.committedInstType_0::SimdShiftAcc            0      0.00%     74.05% # Class of committed instruction (Count)
system.cpu_cluster.cpus.committedInstType_0::SimdDiv            0      0.00%     74.05% # Class of committed instruction (Count)
system.cpu_cluster.cpus.committedInstType_0::SimdSqrt            0      0.00%     74.05% # Class of committed instruction (Count)
system.cpu_cluster.cpus.committedInstType_0::SimdFloatAdd            0      0.00%     74.05% # Class of committed instruction (Count)
system.cpu_cluster.cpus.committedInstType_0::SimdFloatAlu            0      0.00%     74.05% # Class of committed instruction (Count)
system.cpu_cluster.cpus.committedInstType_0::SimdFloatCmp            0      0.00%     74.05% # Class of committed instruction (Count)
system.cpu_cluster.cpus.committedInstType_0::SimdFloatCvt            0      0.00%     74.05% # Class of committed instruction (Count)
system.cpu_cluster.cpus.committedInstType_0::SimdFloatDiv            0      0.00%     74.05% # Class of committed instruction (Count)
system.cpu_cluster.cpus.committedInstType_0::SimdFloatMisc            0      0.00%     74.05% # Class of committed instruction (Count)
system.cpu_cluster.cpus.committedInstType_0::SimdFloatMult            0      0.00%     74.05% # Class of committed instruction (Count)
system.cpu_cluster.cpus.committedInstType_0::SimdFloatMultAcc            0      0.00%     74.05% # Class of committed instruction (Count)
system.cpu_cluster.cpus.committedInstType_0::SimdFloatSqrt            0      0.00%     74.05% # Class of committed instruction (Count)
system.cpu_cluster.cpus.committedInstType_0::SimdReduceAdd            0      0.00%     74.05% # Class of committed instruction (Count)
system.cpu_cluster.cpus.committedInstType_0::SimdReduceAlu            0      0.00%     74.05% # Class of committed instruction (Count)
system.cpu_cluster.cpus.committedInstType_0::SimdReduceCmp            0      0.00%     74.05% # Class of committed instruction (Count)
system.cpu_cluster.cpus.committedInstType_0::SimdFloatReduceAdd            0      0.00%     74.05% # Class of committed instruction (Count)
system.cpu_cluster.cpus.committedInstType_0::SimdFloatReduceCmp            0      0.00%     74.05% # Class of committed instruction (Count)
system.cpu_cluster.cpus.committedInstType_0::SimdAes            0      0.00%     74.05% # Class of committed instruction (Count)
system.cpu_cluster.cpus.committedInstType_0::SimdAesMix            0      0.00%     74.05% # Class of committed instruction (Count)
system.cpu_cluster.cpus.committedInstType_0::SimdSha1Hash            0      0.00%     74.05% # Class of committed instruction (Count)
system.cpu_cluster.cpus.committedInstType_0::SimdSha1Hash2            0      0.00%     74.05% # Class of committed instruction (Count)
system.cpu_cluster.cpus.committedInstType_0::SimdSha256Hash            0      0.00%     74.05% # Class of committed instruction (Count)
system.cpu_cluster.cpus.committedInstType_0::SimdSha256Hash2            0      0.00%     74.05% # Class of committed instruction (Count)
system.cpu_cluster.cpus.committedInstType_0::SimdShaSigma2            0      0.00%     74.05% # Class of committed instruction (Count)
system.cpu_cluster.cpus.committedInstType_0::SimdShaSigma3            0      0.00%     74.05% # Class of committed instruction (Count)
system.cpu_cluster.cpus.committedInstType_0::SimdPredAlu            0      0.00%     74.05% # Class of committed instruction (Count)
system.cpu_cluster.cpus.committedInstType_0::MemRead       342942     16.95%     90.99% # Class of committed instruction (Count)
system.cpu_cluster.cpus.committedInstType_0::MemWrite       182286      9.01%    100.00% # Class of committed instruction (Count)
system.cpu_cluster.cpus.committedInstType_0::FloatMemRead            0      0.00%    100.00% # Class of committed instruction (Count)
system.cpu_cluster.cpus.committedInstType_0::FloatMemWrite            0      0.00%    100.00% # Class of committed instruction (Count)
system.cpu_cluster.cpus.committedInstType_0::IprAccess            0      0.00%    100.00% # Class of committed instruction (Count)
system.cpu_cluster.cpus.committedInstType_0::InstPrefetch            0      0.00%    100.00% # Class of committed instruction (Count)
system.cpu_cluster.cpus.committedInstType_0::total      2023789                       # Class of committed instruction (Count)
system.cpu_cluster.cpus.branchPred.lookups       233742                       # Number of BP lookups (Count)
system.cpu_cluster.cpus.branchPred.condPredicted       112846                       # Number of conditional branches predicted (Count)
system.cpu_cluster.cpus.branchPred.condIncorrect          561                       # Number of conditional branches incorrect (Count)
system.cpu_cluster.cpus.branchPred.BTBLookups       112320                       # Number of BTB lookups (Count)
system.cpu_cluster.cpus.branchPred.BTBHits       111706                       # Number of BTB hits (Count)
system.cpu_cluster.cpus.branchPred.BTBHitRatio     0.994533                       # BTB Hit Ratio (Ratio)
system.cpu_cluster.cpus.branchPred.RASUsed        60233                       # Number of times the RAS was used to get a target. (Count)
system.cpu_cluster.cpus.branchPred.RASIncorrect           16                       # Number of incorrect RAS predictions. (Count)
system.cpu_cluster.cpus.branchPred.indirectLookups           32                       # Number of indirect predictor lookups. (Count)
system.cpu_cluster.cpus.branchPred.indirectHits            0                       # Number of indirect target hits. (Count)
system.cpu_cluster.cpus.branchPred.indirectMisses           32                       # Number of indirect misses. (Count)
system.cpu_cluster.cpus.branchPred.indirectMispredicted           11                       # Number of mispredicted indirect branches. (Count)
system.cpu_cluster.cpus.dcache.demandHits::cpu_cluster.cpus.data       519862                       # number of demand (read+write) hits (Count)
system.cpu_cluster.cpus.dcache.demandHits::total       519862                       # number of demand (read+write) hits (Count)
system.cpu_cluster.cpus.dcache.overallHits::cpu_cluster.cpus.data       519862                       # number of overall hits (Count)
system.cpu_cluster.cpus.dcache.overallHits::total       519862                       # number of overall hits (Count)
system.cpu_cluster.cpus.dcache.demandMisses::cpu_cluster.cpus.data         5340                       # number of demand (read+write) misses (Count)
system.cpu_cluster.cpus.dcache.demandMisses::total         5340                       # number of demand (read+write) misses (Count)
system.cpu_cluster.cpus.dcache.overallMisses::cpu_cluster.cpus.data         5340                       # number of overall misses (Count)
system.cpu_cluster.cpus.dcache.overallMisses::total         5340                       # number of overall misses (Count)
system.cpu_cluster.cpus.dcache.demandMissLatency::cpu_cluster.cpus.data    217957000                       # number of demand (read+write) miss ticks (Tick)
system.cpu_cluster.cpus.dcache.demandMissLatency::total    217957000                       # number of demand (read+write) miss ticks (Tick)
system.cpu_cluster.cpus.dcache.overallMissLatency::cpu_cluster.cpus.data    217957000                       # number of overall miss ticks (Tick)
system.cpu_cluster.cpus.dcache.overallMissLatency::total    217957000                       # number of overall miss ticks (Tick)
system.cpu_cluster.cpus.dcache.demandAccesses::cpu_cluster.cpus.data       525202                       # number of demand (read+write) accesses (Count)
system.cpu_cluster.cpus.dcache.demandAccesses::total       525202                       # number of demand (read+write) accesses (Count)
system.cpu_cluster.cpus.dcache.overallAccesses::cpu_cluster.cpus.data       525202                       # number of overall (read+write) accesses (Count)
system.cpu_cluster.cpus.dcache.overallAccesses::total       525202                       # number of overall (read+write) accesses (Count)
system.cpu_cluster.cpus.dcache.demandMissRate::cpu_cluster.cpus.data     0.010168                       # miss rate for demand accesses (Ratio)
system.cpu_cluster.cpus.dcache.demandMissRate::total     0.010168                       # miss rate for demand accesses (Ratio)
system.cpu_cluster.cpus.dcache.overallMissRate::cpu_cluster.cpus.data     0.010168                       # miss rate for overall accesses (Ratio)
system.cpu_cluster.cpus.dcache.overallMissRate::total     0.010168                       # miss rate for overall accesses (Ratio)
system.cpu_cluster.cpus.dcache.demandAvgMissLatency::cpu_cluster.cpus.data 40815.917603                       # average overall miss latency ((Cycle/Count))
system.cpu_cluster.cpus.dcache.demandAvgMissLatency::total 40815.917603                       # average overall miss latency ((Cycle/Count))
system.cpu_cluster.cpus.dcache.overallAvgMissLatency::cpu_cluster.cpus.data 40815.917603                       # average overall miss latency ((Cycle/Count))
system.cpu_cluster.cpus.dcache.overallAvgMissLatency::total 40815.917603                       # average overall miss latency ((Cycle/Count))
system.cpu_cluster.cpus.dcache.blockedCycles::no_mshrs            0                       # number of cycles access was blocked (Cycle)
system.cpu_cluster.cpus.dcache.blockedCycles::no_targets            0                       # number of cycles access was blocked (Cycle)
system.cpu_cluster.cpus.dcache.blockedCauses::no_mshrs            0                       # number of times access was blocked (Count)
system.cpu_cluster.cpus.dcache.blockedCauses::no_targets            0                       # number of times access was blocked (Count)
system.cpu_cluster.cpus.dcache.avgBlocked::no_mshrs          nan                       # average number of cycles each access was blocked ((Cycle/Count))
system.cpu_cluster.cpus.dcache.avgBlocked::no_targets          nan                       # average number of cycles each access was blocked ((Cycle/Count))
system.cpu_cluster.cpus.dcache.writebacks::writebacks         2161                       # number of writebacks (Count)
system.cpu_cluster.cpus.dcache.writebacks::total         2161                       # number of writebacks (Count)
system.cpu_cluster.cpus.dcache.demandMshrHits::cpu_cluster.cpus.data         2630                       # number of demand (read+write) MSHR hits (Count)
system.cpu_cluster.cpus.dcache.demandMshrHits::total         2630                       # number of demand (read+write) MSHR hits (Count)
system.cpu_cluster.cpus.dcache.overallMshrHits::cpu_cluster.cpus.data         2630                       # number of overall MSHR hits (Count)
system.cpu_cluster.cpus.dcache.overallMshrHits::total         2630                       # number of overall MSHR hits (Count)
system.cpu_cluster.cpus.dcache.demandMshrMisses::cpu_cluster.cpus.data         2710                       # number of demand (read+write) MSHR misses (Count)
system.cpu_cluster.cpus.dcache.demandMshrMisses::total         2710                       # number of demand (read+write) MSHR misses (Count)
system.cpu_cluster.cpus.dcache.overallMshrMisses::cpu_cluster.cpus.data         2710                       # number of overall MSHR misses (Count)
system.cpu_cluster.cpus.dcache.overallMshrMisses::total         2710                       # number of overall MSHR misses (Count)
system.cpu_cluster.cpus.dcache.demandMshrMissLatency::cpu_cluster.cpus.data    165037750                       # number of demand (read+write) MSHR miss ticks (Tick)
system.cpu_cluster.cpus.dcache.demandMshrMissLatency::total    165037750                       # number of demand (read+write) MSHR miss ticks (Tick)
system.cpu_cluster.cpus.dcache.overallMshrMissLatency::cpu_cluster.cpus.data    165037750                       # number of overall MSHR miss ticks (Tick)
system.cpu_cluster.cpus.dcache.overallMshrMissLatency::total    165037750                       # number of overall MSHR miss ticks (Tick)
system.cpu_cluster.cpus.dcache.demandMshrMissRate::cpu_cluster.cpus.data     0.005160                       # mshr miss ratio for demand accesses (Ratio)
system.cpu_cluster.cpus.dcache.demandMshrMissRate::total     0.005160                       # mshr miss ratio for demand accesses (Ratio)
system.cpu_cluster.cpus.dcache.overallMshrMissRate::cpu_cluster.cpus.data     0.005160                       # mshr miss ratio for overall accesses (Ratio)
system.cpu_cluster.cpus.dcache.overallMshrMissRate::total     0.005160                       # mshr miss ratio for overall accesses (Ratio)
system.cpu_cluster.cpus.dcache.demandAvgMshrMissLatency::cpu_cluster.cpus.data 60899.538745                       # average overall mshr miss latency ((Cycle/Count))
system.cpu_cluster.cpus.dcache.demandAvgMshrMissLatency::total 60899.538745                       # average overall mshr miss latency ((Cycle/Count))
system.cpu_cluster.cpus.dcache.overallAvgMshrMissLatency::cpu_cluster.cpus.data 60899.538745                       # average overall mshr miss latency ((Cycle/Count))
system.cpu_cluster.cpus.dcache.overallAvgMshrMissLatency::total 60899.538745                       # average overall mshr miss latency ((Cycle/Count))
system.cpu_cluster.cpus.dcache.replacements         2199                       # number of replacements (Count)
system.cpu_cluster.cpus.dcache.LoadLockedReq.hits::cpu_cluster.cpus.data           15                       # number of LoadLockedReq hits (Count)
system.cpu_cluster.cpus.dcache.LoadLockedReq.hits::total           15                       # number of LoadLockedReq hits (Count)
system.cpu_cluster.cpus.dcache.LoadLockedReq.misses::cpu_cluster.cpus.data            1                       # number of LoadLockedReq misses (Count)
system.cpu_cluster.cpus.dcache.LoadLockedReq.misses::total            1                       # number of LoadLockedReq misses (Count)
system.cpu_cluster.cpus.dcache.LoadLockedReq.missLatency::cpu_cluster.cpus.data        59000                       # number of LoadLockedReq miss ticks (Tick)
system.cpu_cluster.cpus.dcache.LoadLockedReq.missLatency::total        59000                       # number of LoadLockedReq miss ticks (Tick)
system.cpu_cluster.cpus.dcache.LoadLockedReq.accesses::cpu_cluster.cpus.data           16                       # number of LoadLockedReq accesses(hits+misses) (Count)
system.cpu_cluster.cpus.dcache.LoadLockedReq.accesses::total           16                       # number of LoadLockedReq accesses(hits+misses) (Count)
system.cpu_cluster.cpus.dcache.LoadLockedReq.missRate::cpu_cluster.cpus.data     0.062500                       # miss rate for LoadLockedReq accesses (Ratio)
system.cpu_cluster.cpus.dcache.LoadLockedReq.missRate::total     0.062500                       # miss rate for LoadLockedReq accesses (Ratio)
system.cpu_cluster.cpus.dcache.LoadLockedReq.avgMissLatency::cpu_cluster.cpus.data        59000                       # average LoadLockedReq miss latency ((Tick/Count))
system.cpu_cluster.cpus.dcache.LoadLockedReq.avgMissLatency::total        59000                       # average LoadLockedReq miss latency ((Tick/Count))
system.cpu_cluster.cpus.dcache.LoadLockedReq.mshrMisses::cpu_cluster.cpus.data            1                       # number of LoadLockedReq MSHR misses (Count)
system.cpu_cluster.cpus.dcache.LoadLockedReq.mshrMisses::total            1                       # number of LoadLockedReq MSHR misses (Count)
system.cpu_cluster.cpus.dcache.LoadLockedReq.mshrMissLatency::cpu_cluster.cpus.data        58750                       # number of LoadLockedReq MSHR miss ticks (Tick)
system.cpu_cluster.cpus.dcache.LoadLockedReq.mshrMissLatency::total        58750                       # number of LoadLockedReq MSHR miss ticks (Tick)
system.cpu_cluster.cpus.dcache.LoadLockedReq.mshrMissRate::cpu_cluster.cpus.data     0.062500                       # mshr miss rate for LoadLockedReq accesses (Ratio)
system.cpu_cluster.cpus.dcache.LoadLockedReq.mshrMissRate::total     0.062500                       # mshr miss rate for LoadLockedReq accesses (Ratio)
system.cpu_cluster.cpus.dcache.LoadLockedReq.avgMshrMissLatency::cpu_cluster.cpus.data        58750                       # average LoadLockedReq mshr miss latency ((Tick/Count))
system.cpu_cluster.cpus.dcache.LoadLockedReq.avgMshrMissLatency::total        58750                       # average LoadLockedReq mshr miss latency ((Tick/Count))
system.cpu_cluster.cpus.dcache.ReadReq.hits::cpu_cluster.cpus.data       342918                       # number of ReadReq hits (Count)
system.cpu_cluster.cpus.dcache.ReadReq.hits::total       342918                       # number of ReadReq hits (Count)
system.cpu_cluster.cpus.dcache.ReadReq.misses::cpu_cluster.cpus.data           57                       # number of ReadReq misses (Count)
system.cpu_cluster.cpus.dcache.ReadReq.misses::total           57                       # number of ReadReq misses (Count)
system.cpu_cluster.cpus.dcache.ReadReq.missLatency::cpu_cluster.cpus.data      3377500                       # number of ReadReq miss ticks (Tick)
system.cpu_cluster.cpus.dcache.ReadReq.missLatency::total      3377500                       # number of ReadReq miss ticks (Tick)
system.cpu_cluster.cpus.dcache.ReadReq.accesses::cpu_cluster.cpus.data       342975                       # number of ReadReq accesses(hits+misses) (Count)
system.cpu_cluster.cpus.dcache.ReadReq.accesses::total       342975                       # number of ReadReq accesses(hits+misses) (Count)
system.cpu_cluster.cpus.dcache.ReadReq.missRate::cpu_cluster.cpus.data     0.000166                       # miss rate for ReadReq accesses (Ratio)
system.cpu_cluster.cpus.dcache.ReadReq.missRate::total     0.000166                       # miss rate for ReadReq accesses (Ratio)
system.cpu_cluster.cpus.dcache.ReadReq.avgMissLatency::cpu_cluster.cpus.data 59254.385965                       # average ReadReq miss latency ((Tick/Count))
system.cpu_cluster.cpus.dcache.ReadReq.avgMissLatency::total 59254.385965                       # average ReadReq miss latency ((Tick/Count))
system.cpu_cluster.cpus.dcache.ReadReq.mshrHits::cpu_cluster.cpus.data            2                       # number of ReadReq MSHR hits (Count)
system.cpu_cluster.cpus.dcache.ReadReq.mshrHits::total            2                       # number of ReadReq MSHR hits (Count)
system.cpu_cluster.cpus.dcache.ReadReq.mshrMisses::cpu_cluster.cpus.data           55                       # number of ReadReq MSHR misses (Count)
system.cpu_cluster.cpus.dcache.ReadReq.mshrMisses::total           55                       # number of ReadReq MSHR misses (Count)
system.cpu_cluster.cpus.dcache.ReadReq.mshrMissLatency::cpu_cluster.cpus.data      3304000                       # number of ReadReq MSHR miss ticks (Tick)
system.cpu_cluster.cpus.dcache.ReadReq.mshrMissLatency::total      3304000                       # number of ReadReq MSHR miss ticks (Tick)
system.cpu_cluster.cpus.dcache.ReadReq.mshrMissRate::cpu_cluster.cpus.data     0.000160                       # mshr miss rate for ReadReq accesses (Ratio)
system.cpu_cluster.cpus.dcache.ReadReq.mshrMissRate::total     0.000160                       # mshr miss rate for ReadReq accesses (Ratio)
system.cpu_cluster.cpus.dcache.ReadReq.avgMshrMissLatency::cpu_cluster.cpus.data 60072.727273                       # average ReadReq mshr miss latency ((Tick/Count))
system.cpu_cluster.cpus.dcache.ReadReq.avgMshrMissLatency::total 60072.727273                       # average ReadReq mshr miss latency ((Tick/Count))
system.cpu_cluster.cpus.dcache.StoreCondReq.hits::cpu_cluster.cpus.data           16                       # number of StoreCondReq hits (Count)
system.cpu_cluster.cpus.dcache.StoreCondReq.hits::total           16                       # number of StoreCondReq hits (Count)
system.cpu_cluster.cpus.dcache.StoreCondReq.accesses::cpu_cluster.cpus.data           16                       # number of StoreCondReq accesses(hits+misses) (Count)
system.cpu_cluster.cpus.dcache.StoreCondReq.accesses::total           16                       # number of StoreCondReq accesses(hits+misses) (Count)
system.cpu_cluster.cpus.dcache.WriteReq.hits::cpu_cluster.cpus.data       176944                       # number of WriteReq hits (Count)
system.cpu_cluster.cpus.dcache.WriteReq.hits::total       176944                       # number of WriteReq hits (Count)
system.cpu_cluster.cpus.dcache.WriteReq.misses::cpu_cluster.cpus.data         5283                       # number of WriteReq misses (Count)
system.cpu_cluster.cpus.dcache.WriteReq.misses::total         5283                       # number of WriteReq misses (Count)
system.cpu_cluster.cpus.dcache.WriteReq.missLatency::cpu_cluster.cpus.data    214579500                       # number of WriteReq miss ticks (Tick)
system.cpu_cluster.cpus.dcache.WriteReq.missLatency::total    214579500                       # number of WriteReq miss ticks (Tick)
system.cpu_cluster.cpus.dcache.WriteReq.accesses::cpu_cluster.cpus.data       182227                       # number of WriteReq accesses(hits+misses) (Count)
system.cpu_cluster.cpus.dcache.WriteReq.accesses::total       182227                       # number of WriteReq accesses(hits+misses) (Count)
system.cpu_cluster.cpus.dcache.WriteReq.missRate::cpu_cluster.cpus.data     0.028991                       # miss rate for WriteReq accesses (Ratio)
system.cpu_cluster.cpus.dcache.WriteReq.missRate::total     0.028991                       # miss rate for WriteReq accesses (Ratio)
system.cpu_cluster.cpus.dcache.WriteReq.avgMissLatency::cpu_cluster.cpus.data 40616.978989                       # average WriteReq miss latency ((Tick/Count))
system.cpu_cluster.cpus.dcache.WriteReq.avgMissLatency::total 40616.978989                       # average WriteReq miss latency ((Tick/Count))
system.cpu_cluster.cpus.dcache.WriteReq.mshrHits::cpu_cluster.cpus.data         2628                       # number of WriteReq MSHR hits (Count)
system.cpu_cluster.cpus.dcache.WriteReq.mshrHits::total         2628                       # number of WriteReq MSHR hits (Count)
system.cpu_cluster.cpus.dcache.WriteReq.mshrMisses::cpu_cluster.cpus.data         2655                       # number of WriteReq MSHR misses (Count)
system.cpu_cluster.cpus.dcache.WriteReq.mshrMisses::total         2655                       # number of WriteReq MSHR misses (Count)
system.cpu_cluster.cpus.dcache.WriteReq.mshrMissLatency::cpu_cluster.cpus.data    161733750                       # number of WriteReq MSHR miss ticks (Tick)
system.cpu_cluster.cpus.dcache.WriteReq.mshrMissLatency::total    161733750                       # number of WriteReq MSHR miss ticks (Tick)
system.cpu_cluster.cpus.dcache.WriteReq.mshrMissRate::cpu_cluster.cpus.data     0.014570                       # mshr miss rate for WriteReq accesses (Ratio)
system.cpu_cluster.cpus.dcache.WriteReq.mshrMissRate::total     0.014570                       # mshr miss rate for WriteReq accesses (Ratio)
system.cpu_cluster.cpus.dcache.WriteReq.avgMshrMissLatency::cpu_cluster.cpus.data 60916.666667                       # average WriteReq mshr miss latency ((Tick/Count))
system.cpu_cluster.cpus.dcache.WriteReq.avgMshrMissLatency::total 60916.666667                       # average WriteReq mshr miss latency ((Tick/Count))
system.cpu_cluster.cpus.dcache.power_state.pwrStateResidencyTicks::UNDEFINED    632908000                       # Cumulative time (in ticks) in various power states (Tick)
system.cpu_cluster.cpus.dcache.prefetcher.demandMshrMisses         2710                       # demands not covered by prefetchs (Count)
system.cpu_cluster.cpus.dcache.prefetcher.pfIssued            0                       # number of hwpf issued (Count)
system.cpu_cluster.cpus.dcache.prefetcher.pfUseful            0                       # number of useful prefetch (Count)
system.cpu_cluster.cpus.dcache.prefetcher.pfUsefulButMiss            0                       # number of hit on prefetch but cache block is not in an usable state (Count)
system.cpu_cluster.cpus.dcache.prefetcher.accuracy          nan                       # accuracy of the prefetcher (Count)
system.cpu_cluster.cpus.dcache.prefetcher.coverage            0                       # coverage brought by this prefetcher (Count)
system.cpu_cluster.cpus.dcache.prefetcher.pfHitInCache            0                       # number of prefetches hitting in cache (Count)
system.cpu_cluster.cpus.dcache.prefetcher.pfHitInMSHR            0                       # number of prefetches hitting in a MSHR (Count)
system.cpu_cluster.cpus.dcache.prefetcher.pfHitInWB            0                       # number of prefetches hit in the Write Buffer (Count)
system.cpu_cluster.cpus.dcache.prefetcher.pfLate            0                       # number of late prefetches (hitting in cache, MSHR or WB) (Count)
system.cpu_cluster.cpus.dcache.prefetcher.pfIdentified            0                       # number of prefetch candidates identified (Count)
system.cpu_cluster.cpus.dcache.prefetcher.pfBufferHit            0                       # number of redundant prefetches already in prefetch queue (Count)
system.cpu_cluster.cpus.dcache.prefetcher.pfInCache            0                       # number of redundant prefetches already in cache/mshr dropped (Count)
system.cpu_cluster.cpus.dcache.prefetcher.pfRemovedDemand            0                       # number of prefetches dropped due to a demand for the same address (Count)
system.cpu_cluster.cpus.dcache.prefetcher.pfRemovedFull            0                       # number of prefetches dropped due to prefetch queue size (Count)
system.cpu_cluster.cpus.dcache.prefetcher.pfSpanPage            0                       # number of prefetches that crossed the page (Count)
system.cpu_cluster.cpus.dcache.prefetcher.power_state.pwrStateResidencyTicks::UNDEFINED    632908000                       # Cumulative time (in ticks) in various power states (Tick)
system.cpu_cluster.cpus.dcache.tags.tagsInUse   471.249314                       # Average ticks per tags in use ((Tick/Count))
system.cpu_cluster.cpus.dcache.tags.totalRefs        15484                       # Total number of references to valid blocks. (Count)
system.cpu_cluster.cpus.dcache.tags.sampledRefs         2199                       # Sample count of references to valid blocks. (Count)
system.cpu_cluster.cpus.dcache.tags.avgRefs     7.041382                       # Average number of references to valid blocks. ((Count/Count))
system.cpu_cluster.cpus.dcache.tags.warmupTick       152500                       # The tick when the warmup percentage was hit. (Tick)
system.cpu_cluster.cpus.dcache.tags.occupancies::cpu_cluster.cpus.data   471.249314                       # Average occupied blocks per tick, per requestor ((Count/Tick))
system.cpu_cluster.cpus.dcache.tags.avgOccs::cpu_cluster.cpus.data     0.920409                       # Average percentage of cache occupancy ((Ratio/Tick))
system.cpu_cluster.cpus.dcache.tags.avgOccs::total     0.920409                       # Average percentage of cache occupancy ((Ratio/Tick))
system.cpu_cluster.cpus.dcache.tags.occupanciesTaskId::1024          512                       # Occupied blocks per task id (Count)
system.cpu_cluster.cpus.dcache.tags.ageTaskId_1024::0           42                       # Occupied blocks per task id, per block age (Count)
system.cpu_cluster.cpus.dcache.tags.ageTaskId_1024::1          352                       # Occupied blocks per task id, per block age (Count)
system.cpu_cluster.cpus.dcache.tags.ageTaskId_1024::2          118                       # Occupied blocks per task id, per block age (Count)
system.cpu_cluster.cpus.dcache.tags.ratioOccsTaskId::1024            1                       # Ratio of occupied blocks and all blocks, per task id (Ratio)
system.cpu_cluster.cpus.dcache.tags.tagAccesses      2103647                       # Number of tag accesses (Count)
system.cpu_cluster.cpus.dcache.tags.dataAccesses      2103647                       # Number of data accesses (Count)
system.cpu_cluster.cpus.dcache.tags.power_state.pwrStateResidencyTicks::UNDEFINED    632908000                       # Cumulative time (in ticks) in various power states (Tick)
system.cpu_cluster.cpus.fetch2.intInstructions      1116867                       # Number of integer instructions successfully decoded (Count)
system.cpu_cluster.cpus.fetch2.fpInstructions            0                       # Number of floating point instructions successfully decoded (Count)
system.cpu_cluster.cpus.fetch2.vecInstructions       200273                       # Number of SIMD instructions successfully decoded (Count)
system.cpu_cluster.cpus.fetch2.loadInstructions       324342                       # Number of memory load instructions successfully decoded (Count)
system.cpu_cluster.cpus.fetch2.storeInstructions       126902                       # Number of memory store instructions successfully decoded (Count)
system.cpu_cluster.cpus.fetch2.amoInstructions            0                       # Number of memory atomic instructions successfully decoded (Count)
system.cpu_cluster.cpus.icache.demandHits::cpu_cluster.cpus.inst       571971                       # number of demand (read+write) hits (Count)
system.cpu_cluster.cpus.icache.demandHits::total       571971                       # number of demand (read+write) hits (Count)
system.cpu_cluster.cpus.icache.overallHits::cpu_cluster.cpus.inst       571971                       # number of overall hits (Count)
system.cpu_cluster.cpus.icache.overallHits::total       571971                       # number of overall hits (Count)
system.cpu_cluster.cpus.icache.demandMisses::cpu_cluster.cpus.inst          312                       # number of demand (read+write) misses (Count)
system.cpu_cluster.cpus.icache.demandMisses::total          312                       # number of demand (read+write) misses (Count)
system.cpu_cluster.cpus.icache.overallMisses::cpu_cluster.cpus.inst          312                       # number of overall misses (Count)
system.cpu_cluster.cpus.icache.overallMisses::total          312                       # number of overall misses (Count)
system.cpu_cluster.cpus.icache.demandMissLatency::cpu_cluster.cpus.inst     18074750                       # number of demand (read+write) miss ticks (Tick)
system.cpu_cluster.cpus.icache.demandMissLatency::total     18074750                       # number of demand (read+write) miss ticks (Tick)
system.cpu_cluster.cpus.icache.overallMissLatency::cpu_cluster.cpus.inst     18074750                       # number of overall miss ticks (Tick)
system.cpu_cluster.cpus.icache.overallMissLatency::total     18074750                       # number of overall miss ticks (Tick)
system.cpu_cluster.cpus.icache.demandAccesses::cpu_cluster.cpus.inst       572283                       # number of demand (read+write) accesses (Count)
system.cpu_cluster.cpus.icache.demandAccesses::total       572283                       # number of demand (read+write) accesses (Count)
system.cpu_cluster.cpus.icache.overallAccesses::cpu_cluster.cpus.inst       572283                       # number of overall (read+write) accesses (Count)
system.cpu_cluster.cpus.icache.overallAccesses::total       572283                       # number of overall (read+write) accesses (Count)
system.cpu_cluster.cpus.icache.demandMissRate::cpu_cluster.cpus.inst     0.000545                       # miss rate for demand accesses (Ratio)
system.cpu_cluster.cpus.icache.demandMissRate::total     0.000545                       # miss rate for demand accesses (Ratio)
system.cpu_cluster.cpus.icache.overallMissRate::cpu_cluster.cpus.inst     0.000545                       # miss rate for overall accesses (Ratio)
system.cpu_cluster.cpus.icache.overallMissRate::total     0.000545                       # miss rate for overall accesses (Ratio)
system.cpu_cluster.cpus.icache.demandAvgMissLatency::cpu_cluster.cpus.inst 57931.891026                       # average overall miss latency ((Cycle/Count))
system.cpu_cluster.cpus.icache.demandAvgMissLatency::total 57931.891026                       # average overall miss latency ((Cycle/Count))
system.cpu_cluster.cpus.icache.overallAvgMissLatency::cpu_cluster.cpus.inst 57931.891026                       # average overall miss latency ((Cycle/Count))
system.cpu_cluster.cpus.icache.overallAvgMissLatency::total 57931.891026                       # average overall miss latency ((Cycle/Count))
system.cpu_cluster.cpus.icache.blockedCycles::no_mshrs            0                       # number of cycles access was blocked (Cycle)
system.cpu_cluster.cpus.icache.blockedCycles::no_targets            0                       # number of cycles access was blocked (Cycle)
system.cpu_cluster.cpus.icache.blockedCauses::no_mshrs            0                       # number of times access was blocked (Count)
system.cpu_cluster.cpus.icache.blockedCauses::no_targets            0                       # number of times access was blocked (Count)
system.cpu_cluster.cpus.icache.avgBlocked::no_mshrs          nan                       # average number of cycles each access was blocked ((Cycle/Count))
system.cpu_cluster.cpus.icache.avgBlocked::no_targets          nan                       # average number of cycles each access was blocked ((Cycle/Count))
system.cpu_cluster.cpus.icache.demandMshrMisses::cpu_cluster.cpus.inst          312                       # number of demand (read+write) MSHR misses (Count)
system.cpu_cluster.cpus.icache.demandMshrMisses::total          312                       # number of demand (read+write) MSHR misses (Count)
system.cpu_cluster.cpus.icache.overallMshrMisses::cpu_cluster.cpus.inst          312                       # number of overall MSHR misses (Count)
system.cpu_cluster.cpus.icache.overallMshrMisses::total          312                       # number of overall MSHR misses (Count)
system.cpu_cluster.cpus.icache.demandMshrMissLatency::cpu_cluster.cpus.inst     17997000                       # number of demand (read+write) MSHR miss ticks (Tick)
system.cpu_cluster.cpus.icache.demandMshrMissLatency::total     17997000                       # number of demand (read+write) MSHR miss ticks (Tick)
system.cpu_cluster.cpus.icache.overallMshrMissLatency::cpu_cluster.cpus.inst     17997000                       # number of overall MSHR miss ticks (Tick)
system.cpu_cluster.cpus.icache.overallMshrMissLatency::total     17997000                       # number of overall MSHR miss ticks (Tick)
system.cpu_cluster.cpus.icache.demandMshrMissRate::cpu_cluster.cpus.inst     0.000545                       # mshr miss ratio for demand accesses (Ratio)
system.cpu_cluster.cpus.icache.demandMshrMissRate::total     0.000545                       # mshr miss ratio for demand accesses (Ratio)
system.cpu_cluster.cpus.icache.overallMshrMissRate::cpu_cluster.cpus.inst     0.000545                       # mshr miss ratio for overall accesses (Ratio)
system.cpu_cluster.cpus.icache.overallMshrMissRate::total     0.000545                       # mshr miss ratio for overall accesses (Ratio)
system.cpu_cluster.cpus.icache.demandAvgMshrMissLatency::cpu_cluster.cpus.inst 57682.692308                       # average overall mshr miss latency ((Cycle/Count))
system.cpu_cluster.cpus.icache.demandAvgMshrMissLatency::total 57682.692308                       # average overall mshr miss latency ((Cycle/Count))
system.cpu_cluster.cpus.icache.overallAvgMshrMissLatency::cpu_cluster.cpus.inst 57682.692308                       # average overall mshr miss latency ((Cycle/Count))
system.cpu_cluster.cpus.icache.overallAvgMshrMissLatency::total 57682.692308                       # average overall mshr miss latency ((Cycle/Count))
system.cpu_cluster.cpus.icache.replacements           51                       # number of replacements (Count)
system.cpu_cluster.cpus.icache.ReadReq.hits::cpu_cluster.cpus.inst       571971                       # number of ReadReq hits (Count)
system.cpu_cluster.cpus.icache.ReadReq.hits::total       571971                       # number of ReadReq hits (Count)
system.cpu_cluster.cpus.icache.ReadReq.misses::cpu_cluster.cpus.inst          312                       # number of ReadReq misses (Count)
system.cpu_cluster.cpus.icache.ReadReq.misses::total          312                       # number of ReadReq misses (Count)
system.cpu_cluster.cpus.icache.ReadReq.missLatency::cpu_cluster.cpus.inst     18074750                       # number of ReadReq miss ticks (Tick)
system.cpu_cluster.cpus.icache.ReadReq.missLatency::total     18074750                       # number of ReadReq miss ticks (Tick)
system.cpu_cluster.cpus.icache.ReadReq.accesses::cpu_cluster.cpus.inst       572283                       # number of ReadReq accesses(hits+misses) (Count)
system.cpu_cluster.cpus.icache.ReadReq.accesses::total       572283                       # number of ReadReq accesses(hits+misses) (Count)
system.cpu_cluster.cpus.icache.ReadReq.missRate::cpu_cluster.cpus.inst     0.000545                       # miss rate for ReadReq accesses (Ratio)
system.cpu_cluster.cpus.icache.ReadReq.missRate::total     0.000545                       # miss rate for ReadReq accesses (Ratio)
system.cpu_cluster.cpus.icache.ReadReq.avgMissLatency::cpu_cluster.cpus.inst 57931.891026                       # average ReadReq miss latency ((Tick/Count))
system.cpu_cluster.cpus.icache.ReadReq.avgMissLatency::total 57931.891026                       # average ReadReq miss latency ((Tick/Count))
system.cpu_cluster.cpus.icache.ReadReq.mshrMisses::cpu_cluster.cpus.inst          312                       # number of ReadReq MSHR misses (Count)
system.cpu_cluster.cpus.icache.ReadReq.mshrMisses::total          312                       # number of ReadReq MSHR misses (Count)
system.cpu_cluster.cpus.icache.ReadReq.mshrMissLatency::cpu_cluster.cpus.inst     17997000                       # number of ReadReq MSHR miss ticks (Tick)
system.cpu_cluster.cpus.icache.ReadReq.mshrMissLatency::total     17997000                       # number of ReadReq MSHR miss ticks (Tick)
system.cpu_cluster.cpus.icache.ReadReq.mshrMissRate::cpu_cluster.cpus.inst     0.000545                       # mshr miss rate for ReadReq accesses (Ratio)
system.cpu_cluster.cpus.icache.ReadReq.mshrMissRate::total     0.000545                       # mshr miss rate for ReadReq accesses (Ratio)
system.cpu_cluster.cpus.icache.ReadReq.avgMshrMissLatency::cpu_cluster.cpus.inst 57682.692308                       # average ReadReq mshr miss latency ((Tick/Count))
system.cpu_cluster.cpus.icache.ReadReq.avgMshrMissLatency::total 57682.692308                       # average ReadReq mshr miss latency ((Tick/Count))
system.cpu_cluster.cpus.icache.power_state.pwrStateResidencyTicks::UNDEFINED    632908000                       # Cumulative time (in ticks) in various power states (Tick)
system.cpu_cluster.cpus.icache.tags.tagsInUse   255.624808                       # Average ticks per tags in use ((Tick/Count))
system.cpu_cluster.cpus.icache.tags.totalRefs          329                       # Total number of references to valid blocks. (Count)
system.cpu_cluster.cpus.icache.tags.sampledRefs           51                       # Sample count of references to valid blocks. (Count)
system.cpu_cluster.cpus.icache.tags.avgRefs     6.450980                       # Average number of references to valid blocks. ((Count/Count))
system.cpu_cluster.cpus.icache.tags.warmupTick        78500                       # The tick when the warmup percentage was hit. (Tick)
system.cpu_cluster.cpus.icache.tags.occupancies::cpu_cluster.cpus.inst   255.624808                       # Average occupied blocks per tick, per requestor ((Count/Tick))
system.cpu_cluster.cpus.icache.tags.avgOccs::cpu_cluster.cpus.inst     0.499267                       # Average percentage of cache occupancy ((Ratio/Tick))
system.cpu_cluster.cpus.icache.tags.avgOccs::total     0.499267                       # Average percentage of cache occupancy ((Ratio/Tick))
system.cpu_cluster.cpus.icache.tags.occupanciesTaskId::1024          260                       # Occupied blocks per task id (Count)
system.cpu_cluster.cpus.icache.tags.ageTaskId_1024::2          260                       # Occupied blocks per task id, per block age (Count)
system.cpu_cluster.cpus.icache.tags.ratioOccsTaskId::1024     0.507812                       # Ratio of occupied blocks and all blocks, per task id (Ratio)
system.cpu_cluster.cpus.icache.tags.tagAccesses      1144877                       # Number of tag accesses (Count)
system.cpu_cluster.cpus.icache.tags.dataAccesses      1144877                       # Number of data accesses (Count)
system.cpu_cluster.cpus.icache.tags.power_state.pwrStateResidencyTicks::UNDEFINED    632908000                       # Cumulative time (in ticks) in various power states (Tick)
system.cpu_cluster.cpus.mmu.alignFaults             0                       # Number of MMU faults due to alignment restrictions (Count)
system.cpu_cluster.cpus.mmu.prefetchFaults            0                       # Number of MMU faults due to prefetch (Count)
system.cpu_cluster.cpus.mmu.domainFaults            0                       # Number of MMU faults due to domain restrictions (Count)
system.cpu_cluster.cpus.mmu.permsFaults             0                       # Number of MMU faults due to permissions restrictions (Count)
system.cpu_cluster.cpus.mmu.dtb.readHits            0                       # Read hits (Count)
system.cpu_cluster.cpus.mmu.dtb.readMisses            0                       # Read misses (Count)
system.cpu_cluster.cpus.mmu.dtb.writeHits            0                       # Write hits (Count)
system.cpu_cluster.cpus.mmu.dtb.writeMisses            0                       # Write misses (Count)
system.cpu_cluster.cpus.mmu.dtb.inserts             0                       # Number of times an entry is inserted into the TLB (Count)
system.cpu_cluster.cpus.mmu.dtb.flushTlb            0                       # Number of times complete TLB was flushed (Count)
system.cpu_cluster.cpus.mmu.dtb.flushTlbMva            0                       # Number of times TLB was flushed by MVA (Count)
system.cpu_cluster.cpus.mmu.dtb.flushTlbMvaAsid            0                       # Number of times TLB was flushed by MVA & ASID (Count)
system.cpu_cluster.cpus.mmu.dtb.flushTlbAsid            0                       # Number of times TLB was flushed by ASID (Count)
system.cpu_cluster.cpus.mmu.dtb.flushedEntries            0                       # Number of entries that have been flushed from TLB (Count)
system.cpu_cluster.cpus.mmu.dtb.readAccesses            0                       # Read accesses (Count)
system.cpu_cluster.cpus.mmu.dtb.writeAccesses            0                       # Write accesses (Count)
system.cpu_cluster.cpus.mmu.dtb.hits                0                       # Total TLB (inst and data) hits (Count)
system.cpu_cluster.cpus.mmu.dtb.misses              0                       # Total TLB (inst and data) misses (Count)
system.cpu_cluster.cpus.mmu.dtb.accesses            0                       # Total TLB (inst and data) accesses (Count)
system.cpu_cluster.cpus.mmu.dtb_walker.walks            0                       # Table walker walks requested (Count)
system.cpu_cluster.cpus.mmu.dtb_walker.requestOrigin_Requested::Data            0                       # Table walker requests started/completed, data/inst (Count)
system.cpu_cluster.cpus.mmu.dtb_walker.requestOrigin_Requested::Inst            0                       # Table walker requests started/completed, data/inst (Count)
system.cpu_cluster.cpus.mmu.dtb_walker.requestOrigin_Requested::total            0                       # Table walker requests started/completed, data/inst (Count)
system.cpu_cluster.cpus.mmu.dtb_walker.requestOrigin_Completed::Data            0                       # Table walker requests started/completed, data/inst (Count)
system.cpu_cluster.cpus.mmu.dtb_walker.requestOrigin_Completed::Inst            0                       # Table walker requests started/completed, data/inst (Count)
system.cpu_cluster.cpus.mmu.dtb_walker.requestOrigin_Completed::total            0                       # Table walker requests started/completed, data/inst (Count)
system.cpu_cluster.cpus.mmu.dtb_walker.requestOrigin::total            0                       # Table walker requests started/completed, data/inst (Count)
system.cpu_cluster.cpus.mmu.dtb_walker.power_state.pwrStateResidencyTicks::UNDEFINED    632908000                       # Cumulative time (in ticks) in various power states (Tick)
system.cpu_cluster.cpus.mmu.itb.instHits            0                       # Inst hits (Count)
system.cpu_cluster.cpus.mmu.itb.instMisses            0                       # Inst misses (Count)
system.cpu_cluster.cpus.mmu.itb.inserts             0                       # Number of times an entry is inserted into the TLB (Count)
system.cpu_cluster.cpus.mmu.itb.flushTlb            0                       # Number of times complete TLB was flushed (Count)
system.cpu_cluster.cpus.mmu.itb.flushTlbMva            0                       # Number of times TLB was flushed by MVA (Count)
system.cpu_cluster.cpus.mmu.itb.flushTlbMvaAsid            0                       # Number of times TLB was flushed by MVA & ASID (Count)
system.cpu_cluster.cpus.mmu.itb.flushTlbAsid            0                       # Number of times TLB was flushed by ASID (Count)
system.cpu_cluster.cpus.mmu.itb.flushedEntries            0                       # Number of entries that have been flushed from TLB (Count)
system.cpu_cluster.cpus.mmu.itb.instAccesses            0                       # Inst accesses (Count)
system.cpu_cluster.cpus.mmu.itb.hits                0                       # Total TLB (inst and data) hits (Count)
system.cpu_cluster.cpus.mmu.itb.misses              0                       # Total TLB (inst and data) misses (Count)
system.cpu_cluster.cpus.mmu.itb.accesses            0                       # Total TLB (inst and data) accesses (Count)
system.cpu_cluster.cpus.mmu.itb_walker.walks            0                       # Table walker walks requested (Count)
system.cpu_cluster.cpus.mmu.itb_walker.requestOrigin_Requested::Data            0                       # Table walker requests started/completed, data/inst (Count)
system.cpu_cluster.cpus.mmu.itb_walker.requestOrigin_Requested::Inst            0                       # Table walker requests started/completed, data/inst (Count)
system.cpu_cluster.cpus.mmu.itb_walker.requestOrigin_Requested::total            0                       # Table walker requests started/completed, data/inst (Count)
system.cpu_cluster.cpus.mmu.itb_walker.requestOrigin_Completed::Data            0                       # Table walker requests started/completed, data/inst (Count)
system.cpu_cluster.cpus.mmu.itb_walker.requestOrigin_Completed::Inst            0                       # Table walker requests started/completed, data/inst (Count)
system.cpu_cluster.cpus.mmu.itb_walker.requestOrigin_Completed::total            0                       # Table walker requests started/completed, data/inst (Count)
system.cpu_cluster.cpus.mmu.itb_walker.requestOrigin::total            0                       # Table walker requests started/completed, data/inst (Count)
system.cpu_cluster.cpus.mmu.itb_walker.power_state.pwrStateResidencyTicks::UNDEFINED    632908000                       # Cumulative time (in ticks) in various power states (Tick)
system.cpu_cluster.cpus.mmu.l2_shared.instHits            0                       # Inst hits (Count)
system.cpu_cluster.cpus.mmu.l2_shared.instMisses            0                       # Inst misses (Count)
system.cpu_cluster.cpus.mmu.l2_shared.inserts            0                       # Number of times an entry is inserted into the TLB (Count)
system.cpu_cluster.cpus.mmu.l2_shared.flushTlb            0                       # Number of times complete TLB was flushed (Count)
system.cpu_cluster.cpus.mmu.l2_shared.flushTlbMva            0                       # Number of times TLB was flushed by MVA (Count)
system.cpu_cluster.cpus.mmu.l2_shared.flushTlbMvaAsid            0                       # Number of times TLB was flushed by MVA & ASID (Count)
system.cpu_cluster.cpus.mmu.l2_shared.flushTlbAsid            0                       # Number of times TLB was flushed by ASID (Count)
system.cpu_cluster.cpus.mmu.l2_shared.flushedEntries            0                       # Number of entries that have been flushed from TLB (Count)
system.cpu_cluster.cpus.mmu.l2_shared.instAccesses            0                       # Inst accesses (Count)
system.cpu_cluster.cpus.mmu.l2_shared.hits            0                       # Total TLB (inst and data) hits (Count)
system.cpu_cluster.cpus.mmu.l2_shared.misses            0                       # Total TLB (inst and data) misses (Count)
system.cpu_cluster.cpus.mmu.l2_shared.accesses            0                       # Total TLB (inst and data) accesses (Count)
system.cpu_cluster.cpus.mmu.stage2_dtb.readHits            0                       # Read hits (Count)
system.cpu_cluster.cpus.mmu.stage2_dtb.readMisses            0                       # Read misses (Count)
system.cpu_cluster.cpus.mmu.stage2_dtb.writeHits            0                       # Write hits (Count)
system.cpu_cluster.cpus.mmu.stage2_dtb.writeMisses            0                       # Write misses (Count)
system.cpu_cluster.cpus.mmu.stage2_dtb.inserts            0                       # Number of times an entry is inserted into the TLB (Count)
system.cpu_cluster.cpus.mmu.stage2_dtb.flushTlb            0                       # Number of times complete TLB was flushed (Count)
system.cpu_cluster.cpus.mmu.stage2_dtb.flushTlbMva            0                       # Number of times TLB was flushed by MVA (Count)
system.cpu_cluster.cpus.mmu.stage2_dtb.flushTlbMvaAsid            0                       # Number of times TLB was flushed by MVA & ASID (Count)
system.cpu_cluster.cpus.mmu.stage2_dtb.flushTlbAsid            0                       # Number of times TLB was flushed by ASID (Count)
system.cpu_cluster.cpus.mmu.stage2_dtb.flushedEntries            0                       # Number of entries that have been flushed from TLB (Count)
system.cpu_cluster.cpus.mmu.stage2_dtb.readAccesses            0                       # Read accesses (Count)
system.cpu_cluster.cpus.mmu.stage2_dtb.writeAccesses            0                       # Write accesses (Count)
system.cpu_cluster.cpus.mmu.stage2_dtb.hits            0                       # Total TLB (inst and data) hits (Count)
system.cpu_cluster.cpus.mmu.stage2_dtb.misses            0                       # Total TLB (inst and data) misses (Count)
system.cpu_cluster.cpus.mmu.stage2_dtb.accesses            0                       # Total TLB (inst and data) accesses (Count)
system.cpu_cluster.cpus.mmu.stage2_dtb_walker.walks            0                       # Table walker walks requested (Count)
system.cpu_cluster.cpus.mmu.stage2_dtb_walker.requestOrigin_Requested::Data            0                       # Table walker requests started/completed, data/inst (Count)
system.cpu_cluster.cpus.mmu.stage2_dtb_walker.requestOrigin_Requested::Inst            0                       # Table walker requests started/completed, data/inst (Count)
system.cpu_cluster.cpus.mmu.stage2_dtb_walker.requestOrigin_Requested::total            0                       # Table walker requests started/completed, data/inst (Count)
system.cpu_cluster.cpus.mmu.stage2_dtb_walker.requestOrigin_Completed::Data            0                       # Table walker requests started/completed, data/inst (Count)
system.cpu_cluster.cpus.mmu.stage2_dtb_walker.requestOrigin_Completed::Inst            0                       # Table walker requests started/completed, data/inst (Count)
system.cpu_cluster.cpus.mmu.stage2_dtb_walker.requestOrigin_Completed::total            0                       # Table walker requests started/completed, data/inst (Count)
system.cpu_cluster.cpus.mmu.stage2_dtb_walker.requestOrigin::total            0                       # Table walker requests started/completed, data/inst (Count)
system.cpu_cluster.cpus.mmu.stage2_dtb_walker.power_state.pwrStateResidencyTicks::UNDEFINED    632908000                       # Cumulative time (in ticks) in various power states (Tick)
system.cpu_cluster.cpus.mmu.stage2_itb.instHits            0                       # Inst hits (Count)
system.cpu_cluster.cpus.mmu.stage2_itb.instMisses            0                       # Inst misses (Count)
system.cpu_cluster.cpus.mmu.stage2_itb.inserts            0                       # Number of times an entry is inserted into the TLB (Count)
system.cpu_cluster.cpus.mmu.stage2_itb.flushTlb            0                       # Number of times complete TLB was flushed (Count)
system.cpu_cluster.cpus.mmu.stage2_itb.flushTlbMva            0                       # Number of times TLB was flushed by MVA (Count)
system.cpu_cluster.cpus.mmu.stage2_itb.flushTlbMvaAsid            0                       # Number of times TLB was flushed by MVA & ASID (Count)
system.cpu_cluster.cpus.mmu.stage2_itb.flushTlbAsid            0                       # Number of times TLB was flushed by ASID (Count)
system.cpu_cluster.cpus.mmu.stage2_itb.flushedEntries            0                       # Number of entries that have been flushed from TLB (Count)
system.cpu_cluster.cpus.mmu.stage2_itb.instAccesses            0                       # Inst accesses (Count)
system.cpu_cluster.cpus.mmu.stage2_itb.hits            0                       # Total TLB (inst and data) hits (Count)
system.cpu_cluster.cpus.mmu.stage2_itb.misses            0                       # Total TLB (inst and data) misses (Count)
system.cpu_cluster.cpus.mmu.stage2_itb.accesses            0                       # Total TLB (inst and data) accesses (Count)
system.cpu_cluster.cpus.mmu.stage2_itb_walker.walks            0                       # Table walker walks requested (Count)
system.cpu_cluster.cpus.mmu.stage2_itb_walker.requestOrigin_Requested::Data            0                       # Table walker requests started/completed, data/inst (Count)
system.cpu_cluster.cpus.mmu.stage2_itb_walker.requestOrigin_Requested::Inst            0                       # Table walker requests started/completed, data/inst (Count)
system.cpu_cluster.cpus.mmu.stage2_itb_walker.requestOrigin_Requested::total            0                       # Table walker requests started/completed, data/inst (Count)
system.cpu_cluster.cpus.mmu.stage2_itb_walker.requestOrigin_Completed::Data            0                       # Table walker requests started/completed, data/inst (Count)
system.cpu_cluster.cpus.mmu.stage2_itb_walker.requestOrigin_Completed::Inst            0                       # Table walker requests started/completed, data/inst (Count)
system.cpu_cluster.cpus.mmu.stage2_itb_walker.requestOrigin_Completed::total            0                       # Table walker requests started/completed, data/inst (Count)
system.cpu_cluster.cpus.mmu.stage2_itb_walker.requestOrigin::total            0                       # Table walker requests started/completed, data/inst (Count)
system.cpu_cluster.cpus.mmu.stage2_itb_walker.power_state.pwrStateResidencyTicks::UNDEFINED    632908000                       # Cumulative time (in ticks) in various power states (Tick)
system.cpu_cluster.cpus.power_state.pwrStateResidencyTicks::ON    632908000                       # Cumulative time (in ticks) in various power states (Tick)
system.cpu_cluster.cpus.thread_0.numInsts      1927430                       # Number of Instructions committed (Count)
system.cpu_cluster.cpus.thread_0.numOps       2023789                       # Number of Ops committed (Count)
system.cpu_cluster.cpus.thread_0.numMemRefs            0                       # Number of Memory References (Count)
system.cpu_cluster.cpus.workload.numSyscalls            7                       # Number of system calls (Count)
system.cpu_cluster.l2.demandHits::cpu_cluster.cpus.inst           14                       # number of demand (read+write) hits (Count)
system.cpu_cluster.l2.demandHits::cpu_cluster.cpus.data            3                       # number of demand (read+write) hits (Count)
system.cpu_cluster.l2.demandHits::total            17                       # number of demand (read+write) hits (Count)
system.cpu_cluster.l2.overallHits::cpu_cluster.cpus.inst           14                       # number of overall hits (Count)
system.cpu_cluster.l2.overallHits::cpu_cluster.cpus.data            3                       # number of overall hits (Count)
system.cpu_cluster.l2.overallHits::total           17                       # number of overall hits (Count)
system.cpu_cluster.l2.demandMisses::cpu_cluster.cpus.inst          298                       # number of demand (read+write) misses (Count)
system.cpu_cluster.l2.demandMisses::cpu_cluster.cpus.data         2708                       # number of demand (read+write) misses (Count)
system.cpu_cluster.l2.demandMisses::total         3006                       # number of demand (read+write) misses (Count)
system.cpu_cluster.l2.overallMisses::cpu_cluster.cpus.inst          298                       # number of overall misses (Count)
system.cpu_cluster.l2.overallMisses::cpu_cluster.cpus.data         2708                       # number of overall misses (Count)
system.cpu_cluster.l2.overallMisses::total         3006                       # number of overall misses (Count)
system.cpu_cluster.l2.demandMissLatency::cpu_cluster.cpus.inst     17791750                       # number of demand (read+write) miss ticks (Tick)
system.cpu_cluster.l2.demandMissLatency::cpu_cluster.cpus.data    163729000                       # number of demand (read+write) miss ticks (Tick)
system.cpu_cluster.l2.demandMissLatency::total    181520750                       # number of demand (read+write) miss ticks (Tick)
system.cpu_cluster.l2.overallMissLatency::cpu_cluster.cpus.inst     17791750                       # number of overall miss ticks (Tick)
system.cpu_cluster.l2.overallMissLatency::cpu_cluster.cpus.data    163729000                       # number of overall miss ticks (Tick)
system.cpu_cluster.l2.overallMissLatency::total    181520750                       # number of overall miss ticks (Tick)
system.cpu_cluster.l2.demandAccesses::cpu_cluster.cpus.inst          312                       # number of demand (read+write) accesses (Count)
system.cpu_cluster.l2.demandAccesses::cpu_cluster.cpus.data         2711                       # number of demand (read+write) accesses (Count)
system.cpu_cluster.l2.demandAccesses::total         3023                       # number of demand (read+write) accesses (Count)
system.cpu_cluster.l2.overallAccesses::cpu_cluster.cpus.inst          312                       # number of overall (read+write) accesses (Count)
system.cpu_cluster.l2.overallAccesses::cpu_cluster.cpus.data         2711                       # number of overall (read+write) accesses (Count)
system.cpu_cluster.l2.overallAccesses::total         3023                       # number of overall (read+write) accesses (Count)
system.cpu_cluster.l2.demandMissRate::cpu_cluster.cpus.inst     0.955128                       # miss rate for demand accesses (Ratio)
system.cpu_cluster.l2.demandMissRate::cpu_cluster.cpus.data     0.998893                       # miss rate for demand accesses (Ratio)
system.cpu_cluster.l2.demandMissRate::total     0.994376                       # miss rate for demand accesses (Ratio)
system.cpu_cluster.l2.overallMissRate::cpu_cluster.cpus.inst     0.955128                       # miss rate for overall accesses (Ratio)
system.cpu_cluster.l2.overallMissRate::cpu_cluster.cpus.data     0.998893                       # miss rate for overall accesses (Ratio)
system.cpu_cluster.l2.overallMissRate::total     0.994376                       # miss rate for overall accesses (Ratio)
system.cpu_cluster.l2.demandAvgMissLatency::cpu_cluster.cpus.inst 59703.859060                       # average overall miss latency ((Cycle/Count))
system.cpu_cluster.l2.demandAvgMissLatency::cpu_cluster.cpus.data 60461.225997                       # average overall miss latency ((Cycle/Count))
system.cpu_cluster.l2.demandAvgMissLatency::total 60386.144378                       # average overall miss latency ((Cycle/Count))
system.cpu_cluster.l2.overallAvgMissLatency::cpu_cluster.cpus.inst 59703.859060                       # average overall miss latency ((Cycle/Count))
system.cpu_cluster.l2.overallAvgMissLatency::cpu_cluster.cpus.data 60461.225997                       # average overall miss latency ((Cycle/Count))
system.cpu_cluster.l2.overallAvgMissLatency::total 60386.144378                       # average overall miss latency ((Cycle/Count))
system.cpu_cluster.l2.blockedCycles::no_mshrs            0                       # number of cycles access was blocked (Cycle)
system.cpu_cluster.l2.blockedCycles::no_targets            0                       # number of cycles access was blocked (Cycle)
system.cpu_cluster.l2.blockedCauses::no_mshrs            0                       # number of times access was blocked (Count)
system.cpu_cluster.l2.blockedCauses::no_targets            0                       # number of times access was blocked (Count)
system.cpu_cluster.l2.avgBlocked::no_mshrs          nan                       # average number of cycles each access was blocked ((Cycle/Count))
system.cpu_cluster.l2.avgBlocked::no_targets          nan                       # average number of cycles each access was blocked ((Cycle/Count))
system.cpu_cluster.l2.demandMshrHits::cpu_cluster.cpus.inst            1                       # number of demand (read+write) MSHR hits (Count)
system.cpu_cluster.l2.demandMshrHits::cpu_cluster.cpus.data            2                       # number of demand (read+write) MSHR hits (Count)
system.cpu_cluster.l2.demandMshrHits::total            3                       # number of demand (read+write) MSHR hits (Count)
system.cpu_cluster.l2.overallMshrHits::cpu_cluster.cpus.inst            1                       # number of overall MSHR hits (Count)
system.cpu_cluster.l2.overallMshrHits::cpu_cluster.cpus.data            2                       # number of overall MSHR hits (Count)
system.cpu_cluster.l2.overallMshrHits::total            3                       # number of overall MSHR hits (Count)
system.cpu_cluster.l2.demandMshrMisses::cpu_cluster.cpus.inst          297                       # number of demand (read+write) MSHR misses (Count)
system.cpu_cluster.l2.demandMshrMisses::cpu_cluster.cpus.data         2706                       # number of demand (read+write) MSHR misses (Count)
system.cpu_cluster.l2.demandMshrMisses::total         3003                       # number of demand (read+write) MSHR misses (Count)
system.cpu_cluster.l2.overallMshrMisses::cpu_cluster.cpus.inst          297                       # number of overall MSHR misses (Count)
system.cpu_cluster.l2.overallMshrMisses::cpu_cluster.cpus.data         2706                       # number of overall MSHR misses (Count)
system.cpu_cluster.l2.overallMshrMisses::total         3003                       # number of overall MSHR misses (Count)
system.cpu_cluster.l2.demandMshrMissLatency::cpu_cluster.cpus.inst     17418000                       # number of demand (read+write) MSHR miss ticks (Tick)
system.cpu_cluster.l2.demandMshrMissLatency::cpu_cluster.cpus.data    160242750                       # number of demand (read+write) MSHR miss ticks (Tick)
system.cpu_cluster.l2.demandMshrMissLatency::total    177660750                       # number of demand (read+write) MSHR miss ticks (Tick)
system.cpu_cluster.l2.overallMshrMissLatency::cpu_cluster.cpus.inst     17418000                       # number of overall MSHR miss ticks (Tick)
system.cpu_cluster.l2.overallMshrMissLatency::cpu_cluster.cpus.data    160242750                       # number of overall MSHR miss ticks (Tick)
system.cpu_cluster.l2.overallMshrMissLatency::total    177660750                       # number of overall MSHR miss ticks (Tick)
system.cpu_cluster.l2.demandMshrMissRate::cpu_cluster.cpus.inst     0.951923                       # mshr miss ratio for demand accesses (Ratio)
system.cpu_cluster.l2.demandMshrMissRate::cpu_cluster.cpus.data     0.998156                       # mshr miss ratio for demand accesses (Ratio)
system.cpu_cluster.l2.demandMshrMissRate::total     0.993384                       # mshr miss ratio for demand accesses (Ratio)
system.cpu_cluster.l2.overallMshrMissRate::cpu_cluster.cpus.inst     0.951923                       # mshr miss ratio for overall accesses (Ratio)
system.cpu_cluster.l2.overallMshrMissRate::cpu_cluster.cpus.data     0.998156                       # mshr miss ratio for overall accesses (Ratio)
system.cpu_cluster.l2.overallMshrMissRate::total     0.993384                       # mshr miss ratio for overall accesses (Ratio)
system.cpu_cluster.l2.demandAvgMshrMissLatency::cpu_cluster.cpus.inst 58646.464646                       # average overall mshr miss latency ((Cycle/Count))
system.cpu_cluster.l2.demandAvgMshrMissLatency::cpu_cluster.cpus.data 59217.572062                       # average overall mshr miss latency ((Cycle/Count))
system.cpu_cluster.l2.demandAvgMshrMissLatency::total 59161.088911                       # average overall mshr miss latency ((Cycle/Count))
system.cpu_cluster.l2.overallAvgMshrMissLatency::cpu_cluster.cpus.inst 58646.464646                       # average overall mshr miss latency ((Cycle/Count))
system.cpu_cluster.l2.overallAvgMshrMissLatency::cpu_cluster.cpus.data 59217.572062                       # average overall mshr miss latency ((Cycle/Count))
system.cpu_cluster.l2.overallAvgMshrMissLatency::total 59161.088911                       # average overall mshr miss latency ((Cycle/Count))
system.cpu_cluster.l2.replacements                  0                       # number of replacements (Count)
system.cpu_cluster.l2.ReadExReq.hits::cpu_cluster.cpus.data            1                       # number of ReadExReq hits (Count)
system.cpu_cluster.l2.ReadExReq.hits::total            1                       # number of ReadExReq hits (Count)
system.cpu_cluster.l2.ReadExReq.misses::cpu_cluster.cpus.data         2655                       # number of ReadExReq misses (Count)
system.cpu_cluster.l2.ReadExReq.misses::total         2655                       # number of ReadExReq misses (Count)
system.cpu_cluster.l2.ReadExReq.missLatency::cpu_cluster.cpus.data    160484500                       # number of ReadExReq miss ticks (Tick)
system.cpu_cluster.l2.ReadExReq.missLatency::total    160484500                       # number of ReadExReq miss ticks (Tick)
system.cpu_cluster.l2.ReadExReq.accesses::cpu_cluster.cpus.data         2656                       # number of ReadExReq accesses(hits+misses) (Count)
system.cpu_cluster.l2.ReadExReq.accesses::total         2656                       # number of ReadExReq accesses(hits+misses) (Count)
system.cpu_cluster.l2.ReadExReq.missRate::cpu_cluster.cpus.data     0.999623                       # miss rate for ReadExReq accesses (Ratio)
system.cpu_cluster.l2.ReadExReq.missRate::total     0.999623                       # miss rate for ReadExReq accesses (Ratio)
system.cpu_cluster.l2.ReadExReq.avgMissLatency::cpu_cluster.cpus.data 60446.139360                       # average ReadExReq miss latency ((Tick/Count))
system.cpu_cluster.l2.ReadExReq.avgMissLatency::total 60446.139360                       # average ReadExReq miss latency ((Tick/Count))
system.cpu_cluster.l2.ReadExReq.mshrMisses::cpu_cluster.cpus.data         2655                       # number of ReadExReq MSHR misses (Count)
system.cpu_cluster.l2.ReadExReq.mshrMisses::total         2655                       # number of ReadExReq MSHR misses (Count)
system.cpu_cluster.l2.ReadExReq.mshrMissLatency::cpu_cluster.cpus.data    157165750                       # number of ReadExReq MSHR miss ticks (Tick)
system.cpu_cluster.l2.ReadExReq.mshrMissLatency::total    157165750                       # number of ReadExReq MSHR miss ticks (Tick)
system.cpu_cluster.l2.ReadExReq.mshrMissRate::cpu_cluster.cpus.data     0.999623                       # mshr miss rate for ReadExReq accesses (Ratio)
system.cpu_cluster.l2.ReadExReq.mshrMissRate::total     0.999623                       # mshr miss rate for ReadExReq accesses (Ratio)
system.cpu_cluster.l2.ReadExReq.avgMshrMissLatency::cpu_cluster.cpus.data 59196.139360                       # average ReadExReq mshr miss latency ((Tick/Count))
system.cpu_cluster.l2.ReadExReq.avgMshrMissLatency::total 59196.139360                       # average ReadExReq mshr miss latency ((Tick/Count))
system.cpu_cluster.l2.ReadSharedReq.hits::cpu_cluster.cpus.inst           14                       # number of ReadSharedReq hits (Count)
system.cpu_cluster.l2.ReadSharedReq.hits::cpu_cluster.cpus.data            2                       # number of ReadSharedReq hits (Count)
system.cpu_cluster.l2.ReadSharedReq.hits::total           16                       # number of ReadSharedReq hits (Count)
system.cpu_cluster.l2.ReadSharedReq.misses::cpu_cluster.cpus.inst          298                       # number of ReadSharedReq misses (Count)
system.cpu_cluster.l2.ReadSharedReq.misses::cpu_cluster.cpus.data           53                       # number of ReadSharedReq misses (Count)
system.cpu_cluster.l2.ReadSharedReq.misses::total          351                       # number of ReadSharedReq misses (Count)
system.cpu_cluster.l2.ReadSharedReq.missLatency::cpu_cluster.cpus.inst     17791750                       # number of ReadSharedReq miss ticks (Tick)
system.cpu_cluster.l2.ReadSharedReq.missLatency::cpu_cluster.cpus.data      3244500                       # number of ReadSharedReq miss ticks (Tick)
system.cpu_cluster.l2.ReadSharedReq.missLatency::total     21036250                       # number of ReadSharedReq miss ticks (Tick)
system.cpu_cluster.l2.ReadSharedReq.accesses::cpu_cluster.cpus.inst          312                       # number of ReadSharedReq accesses(hits+misses) (Count)
system.cpu_cluster.l2.ReadSharedReq.accesses::cpu_cluster.cpus.data           55                       # number of ReadSharedReq accesses(hits+misses) (Count)
system.cpu_cluster.l2.ReadSharedReq.accesses::total          367                       # number of ReadSharedReq accesses(hits+misses) (Count)
system.cpu_cluster.l2.ReadSharedReq.missRate::cpu_cluster.cpus.inst     0.955128                       # miss rate for ReadSharedReq accesses (Ratio)
system.cpu_cluster.l2.ReadSharedReq.missRate::cpu_cluster.cpus.data     0.963636                       # miss rate for ReadSharedReq accesses (Ratio)
system.cpu_cluster.l2.ReadSharedReq.missRate::total     0.956403                       # miss rate for ReadSharedReq accesses (Ratio)
system.cpu_cluster.l2.ReadSharedReq.avgMissLatency::cpu_cluster.cpus.inst 59703.859060                       # average ReadSharedReq miss latency ((Tick/Count))
system.cpu_cluster.l2.ReadSharedReq.avgMissLatency::cpu_cluster.cpus.data 61216.981132                       # average ReadSharedReq miss latency ((Tick/Count))
system.cpu_cluster.l2.ReadSharedReq.avgMissLatency::total 59932.336182                       # average ReadSharedReq miss latency ((Tick/Count))
system.cpu_cluster.l2.ReadSharedReq.mshrHits::cpu_cluster.cpus.inst            1                       # number of ReadSharedReq MSHR hits (Count)
system.cpu_cluster.l2.ReadSharedReq.mshrHits::cpu_cluster.cpus.data            2                       # number of ReadSharedReq MSHR hits (Count)
system.cpu_cluster.l2.ReadSharedReq.mshrHits::total            3                       # number of ReadSharedReq MSHR hits (Count)
system.cpu_cluster.l2.ReadSharedReq.mshrMisses::cpu_cluster.cpus.inst          297                       # number of ReadSharedReq MSHR misses (Count)
system.cpu_cluster.l2.ReadSharedReq.mshrMisses::cpu_cluster.cpus.data           51                       # number of ReadSharedReq MSHR misses (Count)
system.cpu_cluster.l2.ReadSharedReq.mshrMisses::total          348                       # number of ReadSharedReq MSHR misses (Count)
system.cpu_cluster.l2.ReadSharedReq.mshrMissLatency::cpu_cluster.cpus.inst     17418000                       # number of ReadSharedReq MSHR miss ticks (Tick)
system.cpu_cluster.l2.ReadSharedReq.mshrMissLatency::cpu_cluster.cpus.data      3077000                       # number of ReadSharedReq MSHR miss ticks (Tick)
system.cpu_cluster.l2.ReadSharedReq.mshrMissLatency::total     20495000                       # number of ReadSharedReq MSHR miss ticks (Tick)
system.cpu_cluster.l2.ReadSharedReq.mshrMissRate::cpu_cluster.cpus.inst     0.951923                       # mshr miss rate for ReadSharedReq accesses (Ratio)
system.cpu_cluster.l2.ReadSharedReq.mshrMissRate::cpu_cluster.cpus.data     0.927273                       # mshr miss rate for ReadSharedReq accesses (Ratio)
system.cpu_cluster.l2.ReadSharedReq.mshrMissRate::total     0.948229                       # mshr miss rate for ReadSharedReq accesses (Ratio)
system.cpu_cluster.l2.ReadSharedReq.avgMshrMissLatency::cpu_cluster.cpus.inst 58646.464646                       # average ReadSharedReq mshr miss latency ((Tick/Count))
system.cpu_cluster.l2.ReadSharedReq.avgMshrMissLatency::cpu_cluster.cpus.data 60333.333333                       # average ReadSharedReq mshr miss latency ((Tick/Count))
system.cpu_cluster.l2.ReadSharedReq.avgMshrMissLatency::total 58893.678161                       # average ReadSharedReq mshr miss latency ((Tick/Count))
system.cpu_cluster.l2.WritebackDirty.hits::writebacks         2161                       # number of WritebackDirty hits (Count)
system.cpu_cluster.l2.WritebackDirty.hits::total         2161                       # number of WritebackDirty hits (Count)
system.cpu_cluster.l2.WritebackDirty.accesses::writebacks         2161                       # number of WritebackDirty accesses(hits+misses) (Count)
[...]
system.mem_ctrls1.dram.numReads::total            178                       # Number of read requests responded to by this memory (Count)
system.mem_ctrls1.dram.bwRead::cpu_cluster.cpus.inst    284987920                       # Total read bandwidth from this memory ((Byte/Second))
system.mem_ctrls1.dram.bwRead::cpu_cluster.cpus.data     70741682                       # Total read bandwidth from this memory ((Byte/Second))
system.mem_ctrls1.dram.bwRead::cpu_cluster.cpus.dcache.prefetcher      4042382                       # Total read bandwidth from this memory ((Byte/Second))
system.mem_ctrls1.dram.bwRead::total        359771984                       # Total read bandwidth from this memory ((Byte/Second))
system.mem_ctrls1.dram.bwInstRead::cpu_cluster.cpus.inst    284987920                       # Instruction read bandwidth from this memory ((Byte/Second))
system.mem_ctrls1.dram.bwInstRead::total    284987920                       # Instruction read bandwidth from this memory ((Byte/Second))
system.mem_ctrls1.dram.bwTotal::cpu_cluster.cpus.inst    284987920                       # Total bandwidth to/from this memory ((Byte/Second))
system.mem_ctrls1.dram.bwTotal::cpu_cluster.cpus.data     70741682                       # Total bandwidth to/from this memory ((Byte/Second))
system.mem_ctrls1.dram.bwTotal::cpu_cluster.cpus.dcache.prefetcher      4042382                       # Total bandwidth to/from this memory ((Byte/Second))
system.mem_ctrls1.dram.bwTotal::total       359771984                       # Total bandwidth to/from this memory ((Byte/Second))
system.mem_ctrls1.dram.readBursts                 178                       # Number of DRAM read bursts (Count)
system.mem_ctrls1.dram.writeBursts                  0                       # Number of DRAM write bursts (Count)
system.mem_ctrls1.dram.perBankRdBursts::0            3                       # Per bank write bursts (Count)
system.mem_ctrls1.dram.perBankRdBursts::1            0                       # Per bank write bursts (Count)
system.mem_ctrls1.dram.perBankRdBursts::2            8                       # Per bank write bursts (Count)
system.mem_ctrls1.dram.perBankRdBursts::3            3                       # Per bank write bursts (Count)
system.mem_ctrls1.dram.perBankRdBursts::4           19                       # Per bank write bursts (Count)
system.mem_ctrls1.dram.perBankRdBursts::5           15                       # Per bank write bursts (Count)
system.mem_ctrls1.dram.perBankRdBursts::6           27                       # Per bank write bursts (Count)
system.mem_ctrls1.dram.perBankRdBursts::7            9                       # Per bank write bursts (Count)
system.mem_ctrls1.dram.perBankRdBursts::8            0                       # Per bank write bursts (Count)
system.mem_ctrls1.dram.perBankRdBursts::9            6                       # Per bank write bursts (Count)
system.mem_ctrls1.dram.perBankRdBursts::10            4                       # Per bank write bursts (Count)
system.mem_ctrls1.dram.perBankRdBursts::11            0                       # Per bank write bursts (Count)
system.mem_ctrls1.dram.perBankRdBursts::12            0                       # Per bank write bursts (Count)
system.mem_ctrls1.dram.perBankRdBursts::13           17                       # Per bank write bursts (Count)
system.mem_ctrls1.dram.perBankRdBursts::14           62                       # Per bank write bursts (Count)
system.mem_ctrls1.dram.perBankRdBursts::15            5                       # Per bank write bursts (Count)
system.mem_ctrls1.dram.perBankWrBursts::0            0                       # Per bank write bursts (Count)
system.mem_ctrls1.dram.perBankWrBursts::1            0                       # Per bank write bursts (Count)
system.mem_ctrls1.dram.perBankWrBursts::2            0                       # Per bank write bursts (Count)
system.mem_ctrls1.dram.perBankWrBursts::3            0                       # Per bank write bursts (Count)
system.mem_ctrls1.dram.perBankWrBursts::4            0                       # Per bank write bursts (Count)
system.mem_ctrls1.dram.perBankWrBursts::5            0                       # Per bank write bursts (Count)
system.mem_ctrls1.dram.perBankWrBursts::6            0                       # Per bank write bursts (Count)
system.mem_ctrls1.dram.perBankWrBursts::7            0                       # Per bank write bursts (Count)
system.mem_ctrls1.dram.perBankWrBursts::8            0                       # Per bank write bursts (Count)
system.mem_ctrls1.dram.perBankWrBursts::9            0                       # Per bank write bursts (Count)
system.mem_ctrls1.dram.perBankWrBursts::10            0                       # Per bank write bursts (Count)
system.mem_ctrls1.dram.perBankWrBursts::11            0                       # Per bank write bursts (Count)
system.mem_ctrls1.dram.perBankWrBursts::12            0                       # Per bank write bursts (Count)
system.mem_ctrls1.dram.perBankWrBursts::13            0                       # Per bank write bursts (Count)
system.mem_ctrls1.dram.perBankWrBursts::14            0                       # Per bank write bursts (Count)
system.mem_ctrls1.dram.perBankWrBursts::15            0                       # Per bank write bursts (Count)
system.mem_ctrls1.dram.totQLat                 962500                       # Total ticks spent queuing (Tick)
system.mem_ctrls1.dram.totBusLat               890000                       # Total ticks spent in databus transfers (Tick)
system.mem_ctrls1.dram.totMemAccLat           4300000                       # Total ticks spent from burst creation until serviced by the DRAM (Tick)
system.mem_ctrls1.dram.avgQLat                5407.30                       # Average queueing delay per DRAM burst ((Tick/Count))
system.mem_ctrls1.dram.avgBusLat              5000.00                       # Average bus latency per DRAM burst ((Tick/Count))
system.mem_ctrls1.dram.avgMemAccLat          24157.30                       # Average memory access latency per DRAM burst ((Tick/Count))
system.mem_ctrls1.dram.readRowHits                134                       # Number of row buffer hits during reads (Count)
system.mem_ctrls1.dram.writeRowHits                 0                       # Number of row buffer hits during writes (Count)
system.mem_ctrls1.dram.readRowHitRate           75.28                       # Row buffer hit rate for reads (Ratio)
system.mem_ctrls1.dram.writeRowHitRate            nan                       # Row buffer hit rate for writes (Ratio)
system.mem_ctrls1.dram.bytesPerActivate::samples           36                       # Bytes accessed per row activation (Byte)
system.mem_ctrls1.dram.bytesPerActivate::mean          272                       # Bytes accessed per row activation (Byte)
system.mem_ctrls1.dram.bytesPerActivate::gmean   163.380248                       # Bytes accessed per row activation (Byte)
system.mem_ctrls1.dram.bytesPerActivate::stdev   319.221911                       # Bytes accessed per row activation (Byte)
system.mem_ctrls1.dram.bytesPerActivate::0-127           12     33.33%     33.33% # Bytes accessed per row activation (Byte)
system.mem_ctrls1.dram.bytesPerActivate::128-255           14     38.89%     72.22% # Bytes accessed per row activation (Byte)
system.mem_ctrls1.dram.bytesPerActivate::256-383            2      5.56%     77.78% # Bytes accessed per row activation (Byte)
system.mem_ctrls1.dram.bytesPerActivate::384-511            2      5.56%     83.33% # Bytes accessed per row activation (Byte)
system.mem_ctrls1.dram.bytesPerActivate::512-639            1      2.78%     86.11% # Bytes accessed per row activation (Byte)
system.mem_ctrls1.dram.bytesPerActivate::896-1023            2      5.56%     91.67% # Bytes accessed per row activation (Byte)
system.mem_ctrls1.dram.bytesPerActivate::1024-1151            3      8.33%    100.00% # Bytes accessed per row activation (Byte)
system.mem_ctrls1.dram.bytesPerActivate::total           36                       # Bytes accessed per row activation (Byte)
system.mem_ctrls1.dram.bytesRead                11392                       # Total bytes read (Byte)
system.mem_ctrls1.dram.bytesWritten                 0                       # Total bytes written (Byte)
system.mem_ctrls1.dram.avgRdBW             359.771984                       # Average DRAM read bandwidth in MiBytes/s ((Byte/Second))
system.mem_ctrls1.dram.avgWrBW                      0                       # Average DRAM write bandwidth in MiBytes/s ((Byte/Second))
system.mem_ctrls1.dram.peakBW                12800.00                       # Theoretical peak bandwidth in MiByte/s ((Byte/Second))
system.mem_ctrls1.dram.busUtil                   2.81                       # Data bus utilization in percentage (Ratio)
system.mem_ctrls1.dram.busUtilRead               2.81                       # Data bus utilization in percentage for reads (Ratio)
system.mem_ctrls1.dram.busUtilWrite              0.00                       # Data bus utilization in percentage for writes (Ratio)
system.mem_ctrls1.dram.pageHitRate              75.28                       # Row buffer hit rate, read and write combined (Ratio)
system.mem_ctrls1.dram.power_state.pwrStateResidencyTicks::UNDEFINED     31664500                       # Cumulative time (in ticks) in various power states (Tick)
system.mem_ctrls1.dram.rank0.actEnergy         149940                       # Energy for activate commands per rank (pJ) (Joule)
system.mem_ctrls1.dram.rank0.preEnergy          64515                       # Energy for precharge commands per rank (pJ) (Joule)
system.mem_ctrls1.dram.rank0.readEnergy        599760                       # Energy for read commands per rank (pJ) (Joule)
system.mem_ctrls1.dram.rank0.writeEnergy            0                       # Energy for write commands per rank (pJ) (Joule)
system.mem_ctrls1.dram.rank0.refreshEnergy 2458560.000000                       # Energy for refresh commands per rank (pJ) (Joule)
system.mem_ctrls1.dram.rank0.actBackEnergy      9029370                       # Energy for active background per rank (pJ) (Joule)
system.mem_ctrls1.dram.rank0.preBackEnergy      4555680                       # Energy for precharge background per rank (pJ) (Joule)
system.mem_ctrls1.dram.rank0.actPowerDownEnergy            0                       # Energy for active power-down per rank (pJ) (Joule)
system.mem_ctrls1.dram.rank0.prePowerDownEnergy            0                       # Energy for precharge power-down per rank (pJ) (Joule)
system.mem_ctrls1.dram.rank0.selfRefreshEnergy            0                       # Energy for self refresh per rank (pJ) (Joule)
system.mem_ctrls1.dram.rank0.totalEnergy     16857825                       # Total energy per rank (pJ) (Joule)
system.mem_ctrls1.dram.rank0.averagePower   532.388795                       # Core power per rank (mW) (Watt)
system.mem_ctrls1.dram.rank0.totalIdleTime            0                       # Total Idle time Per DRAM Rank (Tick)
system.mem_ctrls1.dram.rank0.pwrStateTime::IDLE     11779250                       # Time in different power states (Tick)
system.mem_ctrls1.dram.rank0.pwrStateTime::REF      1040000                       # Time in different power states (Tick)
system.mem_ctrls1.dram.rank0.pwrStateTime::SREF            0                       # Time in different power states (Tick)
system.mem_ctrls1.dram.rank0.pwrStateTime::PRE_PDN            0                       # Time in different power states (Tick)
system.mem_ctrls1.dram.rank0.pwrStateTime::ACT     18845250                       # Time in different power states (Tick)
system.mem_ctrls1.dram.rank0.pwrStateTime::ACT_PDN            0                       # Time in different power states (Tick)
system.mem_ctrls1.dram.rank1.actEnergy         164220                       # Energy for activate commands per rank (pJ) (Joule)
system.mem_ctrls1.dram.rank1.preEnergy          72105                       # Energy for precharge commands per rank (pJ) (Joule)
system.mem_ctrls1.dram.rank1.readEnergy        671160                       # Energy for read commands per rank (pJ) (Joule)
system.mem_ctrls1.dram.rank1.writeEnergy            0                       # Energy for write commands per rank (pJ) (Joule)
system.mem_ctrls1.dram.rank1.refreshEnergy 2458560.000000                       # Energy for refresh commands per rank (pJ) (Joule)
system.mem_ctrls1.dram.rank1.actBackEnergy      8661720                       # Energy for active background per rank (pJ) (Joule)
system.mem_ctrls1.dram.rank1.preBackEnergy      4865280                       # Energy for precharge background per rank (pJ) (Joule)
system.mem_ctrls1.dram.rank1.actPowerDownEnergy            0                       # Energy for active power-down per rank (pJ) (Joule)
system.mem_ctrls1.dram.rank1.prePowerDownEnergy            0                       # Energy for precharge power-down per rank (pJ) (Joule)
system.mem_ctrls1.dram.rank1.selfRefreshEnergy            0                       # Energy for self refresh per rank (pJ) (Joule)
system.mem_ctrls1.dram.rank1.totalEnergy     16893045                       # Total energy per rank (pJ) (Joule)
system.mem_ctrls1.dram.rank1.averagePower   533.501082                       # Core power per rank (mW) (Watt)
system.mem_ctrls1.dram.rank1.totalIdleTime            0                       # Total Idle time Per DRAM Rank (Tick)
system.mem_ctrls1.dram.rank1.pwrStateTime::IDLE     12504500                       # Time in different power states (Tick)
system.mem_ctrls1.dram.rank1.pwrStateTime::REF      1040000                       # Time in different power states (Tick)
system.mem_ctrls1.dram.rank1.pwrStateTime::SREF            0                       # Time in different power states (Tick)
system.mem_ctrls1.dram.rank1.pwrStateTime::PRE_PDN            0                       # Time in different power states (Tick)
system.mem_ctrls1.dram.rank1.pwrStateTime::ACT     18120000                       # Time in different power states (Tick)
system.mem_ctrls1.dram.rank1.pwrStateTime::ACT_PDN            0                       # Time in different power states (Tick)
system.mem_ctrls1.power_state.pwrStateResidencyTicks::UNDEFINED     31664500                       # Cumulative time (in ticks) in various power states (Tick)
system.membus.transDist::ReadResp                 317                       # Transaction distribution (Count)
system.membus.transDist::ReadExReq                 30                       # Transaction distribution (Count)
system.membus.transDist::ReadExResp                30                       # Transaction distribution (Count)
system.membus.transDist::ReadSharedReq            317                       # Transaction distribution (Count)
system.membus.pktCount_system.cpu_cluster.l2.mem_side_port::system.mem_ctrls0.port          338                       # Packet count per connected requestor and responder (Count)
system.membus.pktCount_system.cpu_cluster.l2.mem_side_port::system.mem_ctrls1.port          356                       # Packet count per connected requestor and responder (Count)
system.membus.pktCount_system.cpu_cluster.l2.mem_side_port::total          694                       # Packet count per connected requestor and responder (Count)
system.membus.pktCount::total                     694                       # Packet count per connected requestor and responder (Count)
system.membus.pktSize_system.cpu_cluster.l2.mem_side_port::system.mem_ctrls0.port        10816                       # Cumulative packet size per connected requestor and responder (Byte)
system.membus.pktSize_system.cpu_cluster.l2.mem_side_port::system.mem_ctrls1.port        11392                       # Cumulative packet size per connected requestor and responder (Byte)
system.membus.pktSize_system.cpu_cluster.l2.mem_side_port::total        22208                       # Cumulative packet size per connected requestor and responder (Byte)
system.membus.pktSize::total                    22208                       # Cumulative packet size per connected requestor and responder (Byte)
system.membus.snoops                                0                       # Total snoops (Count)
system.membus.snoopTraffic                          0                       # Total snoop traffic (Byte)
system.membus.snoopFanout::samples                347                       # Request fanout histogram (Count)
system.membus.snoopFanout::mean                     0                       # Request fanout histogram (Count)
system.membus.snoopFanout::stdev                    0                       # Request fanout histogram (Count)
system.membus.snoopFanout::underflows               0      0.00%      0.00% # Request fanout histogram (Count)
system.membus.snoopFanout::0                      347    100.00%    100.00% # Request fanout histogram (Count)
system.membus.snoopFanout::1                        0      0.00%    100.00% # Request fanout histogram (Count)
system.membus.snoopFanout::overflows                0      0.00%    100.00% # Request fanout histogram (Count)
system.membus.snoopFanout::min_value                0                       # Request fanout histogram (Count)
system.membus.snoopFanout::max_value                0                       # Request fanout histogram (Count)
system.membus.snoopFanout::total                  347                       # Request fanout histogram (Count)
system.membus.power_state.pwrStateResidencyTicks::UNDEFINED     31664500                       # Cumulative time (in ticks) in various power states (Tick)
system.membus.reqLayer0.occupancy              200252                       # Layer occupancy (ticks) (Tick)
system.membus.reqLayer0.utilization               0.0                       # Layer utilization (Ratio)
system.membus.reqLayer1.occupancy              214001                       # Layer occupancy (ticks) (Tick)
system.membus.reqLayer1.utilization               0.0                       # Layer utilization (Ratio)
system.membus.respLayer1.occupancy            1843000                       # Layer occupancy (ticks) (Tick)
system.membus.respLayer1.utilization              0.1                       # Layer utilization (Ratio)
system.membus.snoop_filter.totRequests            347                       # Total number of requests made to the snoop filter. (Count)
system.membus.snoop_filter.hitSingleRequests            0                       # Number of requests hitting in the snoop filter with a single holder of the requested data. (Count)
system.membus.snoop_filter.hitMultiRequests            0                       # Number of requests hitting in the snoop filter with multiple (>1) holders of the requested data. (Count)
system.membus.snoop_filter.totSnoops                0                       # Total number of snoops made to the snoop filter. (Count)
system.membus.snoop_filter.hitSingleSnoops            0                       # Number of snoops hitting in the snoop filter with a single holder of the requested data. (Count)
system.membus.snoop_filter.hitMultiSnoops            0                       # Number of snoops hitting in the snoop filter with multiple (>1) holders of the requested data. (Count)
system.voltage_domain.voltage                3.300000                       # Voltage in Volts (Volt)
system.workload.inst.arm                            0                       # number of arm instructions executed (Count)
system.workload.inst.quiesce                        0                       # number of quiesce instructions executed (Count)
system.cpu_cluster.cpus.idleCycles              75253                       # Total number of cycles that the object has spent stopped (Unspecified)
system.cpu_cluster.cpus.tickCycles              51405                       # Number of cycles that the object actually ticked (Unspecified)

---------- End Simulation Statistics   ----------
