
---------- Begin Simulation Statistics ----------
simSeconds                                   0.002838                       # Number of seconds simulated (Second)
simTicks                                   2837681500                       # Number of ticks simulated (Tick)
finalTick                                  2837681500                       # Number of ticks from beginning of simulation (restored from checkpoints and never reset) (Tick)
simFreq                                  1000000000000                       # The number of ticks per simulated second ((Tick/Second))
hostSeconds                                     20.44                       # Real time elapsed on the host (Second)
hostTickRate                                138805467                       # The number of ticks simulated per host second (ticks/s) ((Tick/Second))
hostMemory                                    2266588                       # Number of bytes of host memory used (Byte)
simInsts                                     12294533                       # Number of instructions simulated (Count)
simOps                                       13175796                       # Number of ops (including micro ops) simulated (Count)
hostInstRate                                   601385                       # Simulator instruction rate (inst/s) ((Count/Second))
hostOpRate                                     644492                       # Simulator op (including micro ops) rate (op/s) ((Count/Second))
system.clk_domain.clock                          1000                       # Clock period in ticks (Tick)
system.cpu_cluster.clk_domain.clock               250                       # Clock period in ticks (Tick)
system.cpu_cluster.cpus.numCycles            11350726                       # Number of cpu cycles simulated (Cycle)
system.cpu_cluster.cpus.numWorkItemsStarted            0                       # Number of work items this cpu started (Count)
system.cpu_cluster.cpus.numWorkItemsCompleted            0                       # Number of work items this cpu completed (Count)
system.cpu_cluster.cpus.numInsts             12294533                       # Number of instructions committed (Count)
system.cpu_cluster.cpus.numOps               13175796                       # Number of ops (including micro ops) committed (Count)
system.cpu_cluster.cpus.numDiscardedOps          2259                       # Number of ops (including micro ops) which were discarded before commit (Count)
system.cpu_cluster.cpus.numFetchSuspends            0                       # Number of times Execute suspended instruction fetching (Count)
system.cpu_cluster.cpus.cpi                  0.923234                       # CPI: cycles per instruction ((Cycle/Count))
system.cpu_cluster.cpus.ipc                  1.083149                       # IPC: instructions per cycle ((Count/Cycle))
system.cpu_cluster.cpus.committedInstType_0::No_OpClass            2      0.00%      0.00% # Class of committed instruction (Count)
system.cpu_cluster.cpus.committedInstType_0::IntAlu      9849170     74.75%     74.75% # Class of committed instruction (Count)
system.cpu_cluster.cpus.committedInstType_0::IntMult       640626      4.86%     79.61% # Class of committed instruction (Count)
system.cpu_cluster.cpus.committedInstType_0::IntDiv            2      0.00%     79.61% # Class of committed instruction (Count)
system.cpu_cluster.cpus.committedInstType_0::FloatAdd        20000      0.15%     79.77% # Class of committed instruction (Count)
system.cpu_cluster.cpus.committedInstType_0::FloatCmp        20000      0.15%     79.92% # Class of committed instruction (Count)
system.cpu_cluster.cpus.committedInstType_0::FloatCvt        40000      0.30%     80.22% # Class of committed instruction (Count)
system.cpu_cluster.cpus.committedInstType_0::FloatMult            0      0.00%     80.22% # Class of committed instruction (Count)
system.cpu_cluster.cpus.committedInstType_0::FloatMultAcc        40000      0.30%     80.52% # Class of committed instruction (Count)
system.cpu_cluster.cpus.committedInstType_0::FloatDiv        20000      0.15%     80.68% # Class of committed instruction (Count)
system.cpu_cluster.cpus.committedInstType_0::FloatMisc       600001      4.55%     85.23% # Class of committed instruction (Count)
system.cpu_cluster.cpus.committedInstType_0::FloatSqrt            0      0.00%     85.23% # Class of committed instruction (Count)
system.cpu_cluster.cpus.committedInstType_0::SimdAdd           11      0.00%     85.23% # Class of committed instruction (Count)
system.cpu_cluster.cpus.committedInstType_0::SimdAddAcc            0      0.00%     85.23% # Class of committed instruction (Count)
system.cpu_cluster.cpus.committedInstType_0::SimdAlu       141513      1.07%     86.30% # Class of committed instruction (Count)
system.cpu_cluster.cpus.committedInstType_0::SimdCmp        20223      0.15%     86.46% # Class of committed instruction (Count)
system.cpu_cluster.cpus.committedInstType_0::SimdCvt            0      0.00%     86.46% # Class of committed instruction (Count)
system.cpu_cluster.cpus.committedInstType_0::SimdMisc        20007      0.15%     86.61% # Class of committed instruction (Count)
system.cpu_cluster.cpus.committedInstType_0::SimdMult            0      0.00%     86.61% # Class of committed instruction (Count)
system.cpu_cluster.cpus.committedInstType_0::SimdMultAcc            0      0.00%     86.61% # Class of committed instruction (Count)
system.cpu_cluster.cpus.committedInstType_0::SimdShift        20215      0.15%     86.76% # Class of committed instruction (Count)
system.cpu_cluster.cpus.committedInstType_0::SimdShiftAcc            0      0.00%     86.76% # Class of committed instruction (Count)
system.cpu_cluster.cpus.committedInstType_0::SimdDiv            0      0.00%     86.76% # Class of committed instruction (Count)
system.cpu_cluster.cpus.committedInstType_0::SimdSqrt            0      0.00%     86.76% # Class of committed instruction (Count)
system.cpu_cluster.cpus.committedInstType_0::SimdFloatAdd            0      0.00%     86.76% # Class of committed instruction (Count)
system.cpu_cluster.cpus.committedInstType_0::SimdFloatAlu            0      0.00%     86.76% # Class of committed instruction (Count)
system.cpu_cluster.cpus.committedInstType_0::SimdFloatCmp            0      0.00%     86.76% # Class of committed instruction (Count)
system.cpu_cluster.cpus.committedInstType_0::SimdFloatCvt            0      0.00%     86.76% # Class of committed instruction (Count)
system.cpu_cluster.cpus.committedInstType_0::SimdFloatDiv            0      0.00%     86.76% # Class of committed instruction (Count)
system.cpu_cluster.cpus.committedInstType_0::SimdFloatMisc            0      0.00%     86.76% # Class of committed instruction (Count)
system.cpu_cluster.cpus.committedInstType_0::SimdFloatMult            0      0.00%     86.76% # Class of committed instruction (Count)
system.cpu_cluster.cpus.committedInstType_0::SimdFloatMultAcc            0      0.00%     86.76% # Class of committed instruction (Count)
system.cpu_cluster.cpus.committedInstType_0::SimdFloatSqrt            0      0.00%     86.76% # Class of committed instruction (Count)
system.cpu_cluster.cpus.committedInstType_0::SimdReduceAdd            0      0.00%     86.76% # Class of committed instruction (Count)
system.cpu_cluster.cpus.committedInstType_0::SimdReduceAlu            0      0.00%     86.76% # Class of committed instruction (Count)
system.cpu_cluster.cpus.committedInstType_0::SimdReduceCmp            0      0.00%     86.76% # Class of committed instruction (Count)
system.cpu_cluster.cpus.committedInstType_0::SimdFloatReduceAdd            0      0.00%     86.76% # Class of committed instruction (Count)
system.cpu_cluster.cpus.committedInstType_0::SimdFloatReduceCmp            0      0.00%     86.76% # Class of committed instruction (Count)
system.cpu_cluster.cpus.committedInstType_0::SimdAes            0      0.00%     86.76% # Class of committed instruction (Count)
system.cpu_cluster.cpus.committedInstType_0::SimdAesMix            0      0.00%     86.76% # Class of committed instruction (Count)
system.cpu_cluster.cpus.committedInstType_0::SimdSha1Hash            0      0.00%     86.76% # Class of committed instruction (Count)
system.cpu_cluster.cpus.committedInstType_0::SimdSha1Hash2            0      0.00%     86.76% # Class of committed instruction (Count)
system.cpu_cluster.cpus.committedInstType_0::SimdSha256Hash            0      0.00%     86.76% # Class of committed instruction (Count)
system.cpu_cluster.cpus.committedInstType_0::SimdSha256Hash2            0      0.00%     86.76% # Class of committed instruction (Count)
system.cpu_cluster.cpus.committedInstType_0::SimdShaSigma2            0      0.00%     86.76% # Class of committed instruction (Count)
system.cpu_cluster.cpus.committedInstType_0::SimdShaSigma3            0      0.00%     86.76% # Class of committed instruction (Count)
system.cpu_cluster.cpus.committedInstType_0::SimdPredAlu            0      0.00%     86.76% # Class of committed instruction (Count)
system.cpu_cluster.cpus.committedInstType_0::MemRead       701804      5.33%     92.09% # Class of committed instruction (Count)
system.cpu_cluster.cpus.committedInstType_0::MemWrite      1042222      7.91%    100.00% # Class of committed instruction (Count)
system.cpu_cluster.cpus.committedInstType_0::FloatMemRead            0      0.00%    100.00% # Class of committed instruction (Count)
system.cpu_cluster.cpus.committedInstType_0::FloatMemWrite            0      0.00%    100.00% # Class of committed instruction (Count)
system.cpu_cluster.cpus.committedInstType_0::IprAccess            0      0.00%    100.00% # Class of committed instruction (Count)
system.cpu_cluster.cpus.committedInstType_0::InstPrefetch            0      0.00%    100.00% # Class of committed instruction (Count)
system.cpu_cluster.cpus.committedInstType_0::total     13175796                       # Class of committed instruction (Count)
system.cpu_cluster.cpus.branchPred.lookups      1333862                       # Number of BP lookups (Count)
system.cpu_cluster.cpus.branchPred.condPredicted      1013019                       # Number of conditional branches predicted (Count)
system.cpu_cluster.cpus.branchPred.condIncorrect          658                       # Number of conditional branches incorrect (Count)
system.cpu_cluster.cpus.branchPred.BTBLookups       532264                       # Number of BTB lookups (Count)
system.cpu_cluster.cpus.branchPred.BTBHits       531480                       # Number of BTB hits (Count)
system.cpu_cluster.cpus.branchPred.BTBHitRatio     0.998527                       # BTB Hit Ratio (Ratio)
system.cpu_cluster.cpus.branchPred.RASUsed       140229                       # Number of times the RAS was used to get a target. (Count)
system.cpu_cluster.cpus.branchPred.RASIncorrect           18                       # Number of incorrect RAS predictions. (Count)
system.cpu_cluster.cpus.branchPred.indirectLookups           31                       # Number of indirect predictor lookups. (Count)
system.cpu_cluster.cpus.branchPred.indirectHits            0                       # Number of indirect target hits. (Count)
system.cpu_cluster.cpus.branchPred.indirectMisses           31                       # Number of indirect misses. (Count)
system.cpu_cluster.cpus.branchPred.indirectMispredicted           12                       # Number of mispredicted indirect branches. (Count)
system.cpu_cluster.cpus.dcache.demandHits::cpu_cluster.cpus.data      1752779                       # number of demand (read+write) hits (Count)
system.cpu_cluster.cpus.dcache.demandHits::total      1752779                       # number of demand (read+write) hits (Count)
system.cpu_cluster.cpus.dcache.overallHits::cpu_cluster.cpus.data      1752779                       # number of overall hits (Count)
system.cpu_cluster.cpus.dcache.overallHits::total      1752779                       # number of overall hits (Count)
system.cpu_cluster.cpus.dcache.demandMisses::cpu_cluster.cpus.data         1640                       # number of demand (read+write) misses (Count)
system.cpu_cluster.cpus.dcache.demandMisses::total         1640                       # number of demand (read+write) misses (Count)
system.cpu_cluster.cpus.dcache.overallMisses::cpu_cluster.cpus.data         1640                       # number of overall misses (Count)
system.cpu_cluster.cpus.dcache.overallMisses::total         1640                       # number of overall misses (Count)
system.cpu_cluster.cpus.dcache.demandMissLatency::cpu_cluster.cpus.data    107457500                       # number of demand (read+write) miss ticks (Tick)
system.cpu_cluster.cpus.dcache.demandMissLatency::total    107457500                       # number of demand (read+write) miss ticks (Tick)
system.cpu_cluster.cpus.dcache.overallMissLatency::cpu_cluster.cpus.data    107457500                       # number of overall miss ticks (Tick)
system.cpu_cluster.cpus.dcache.overallMissLatency::total    107457500                       # number of overall miss ticks (Tick)
system.cpu_cluster.cpus.dcache.demandAccesses::cpu_cluster.cpus.data      1754419                       # number of demand (read+write) accesses (Count)
system.cpu_cluster.cpus.dcache.demandAccesses::total      1754419                       # number of demand (read+write) accesses (Count)
system.cpu_cluster.cpus.dcache.overallAccesses::cpu_cluster.cpus.data      1754419                       # number of overall (read+write) accesses (Count)
system.cpu_cluster.cpus.dcache.overallAccesses::total      1754419                       # number of overall (read+write) accesses (Count)
system.cpu_cluster.cpus.dcache.demandMissRate::cpu_cluster.cpus.data     0.000935                       # miss rate for demand accesses (Ratio)
system.cpu_cluster.cpus.dcache.demandMissRate::total     0.000935                       # miss rate for demand accesses (Ratio)
system.cpu_cluster.cpus.dcache.overallMissRate::cpu_cluster.cpus.data     0.000935                       # miss rate for overall accesses (Ratio)
system.cpu_cluster.cpus.dcache.overallMissRate::total     0.000935                       # miss rate for overall accesses (Ratio)
system.cpu_cluster.cpus.dcache.demandAvgMissLatency::cpu_cluster.cpus.data 65522.865854                       # average overall miss latency ((Cycle/Count))
system.cpu_cluster.cpus.dcache.demandAvgMissLatency::total 65522.865854                       # average overall miss latency ((Cycle/Count))
system.cpu_cluster.cpus.dcache.overallAvgMissLatency::cpu_cluster.cpus.data 65522.865854                       # average overall miss latency ((Cycle/Count))
system.cpu_cluster.cpus.dcache.overallAvgMissLatency::total 65522.865854                       # average overall miss latency ((Cycle/Count))
system.cpu_cluster.cpus.dcache.blockedCycles::no_mshrs            0                       # number of cycles access was blocked (Cycle)
system.cpu_cluster.cpus.dcache.blockedCycles::no_targets            0                       # number of cycles access was blocked (Cycle)
system.cpu_cluster.cpus.dcache.blockedCauses::no_mshrs            0                       # number of times access was blocked (Count)
system.cpu_cluster.cpus.dcache.blockedCauses::no_targets            0                       # number of times access was blocked (Count)
system.cpu_cluster.cpus.dcache.avgBlocked::no_mshrs          nan                       # average number of cycles each access was blocked ((Cycle/Count))
system.cpu_cluster.cpus.dcache.avgBlocked::no_targets          nan                       # average number of cycles each access was blocked ((Cycle/Count))
system.cpu_cluster.cpus.dcache.writebacks::writebacks         2164                       # number of writebacks (Count)
system.cpu_cluster.cpus.dcache.writebacks::total         2164                       # number of writebacks (Count)
system.cpu_cluster.cpus.dcache.demandMshrHits::cpu_cluster.cpus.data          144                       # number of demand (read+write) MSHR hits (Count)
system.cpu_cluster.cpus.dcache.demandMshrHits::total          144                       # number of demand (read+write) MSHR hits (Count)
system.cpu_cluster.cpus.dcache.overallMshrHits::cpu_cluster.cpus.data          144                       # number of overall MSHR hits (Count)
system.cpu_cluster.cpus.dcache.overallMshrHits::total          144                       # number of overall MSHR hits (Count)
system.cpu_cluster.cpus.dcache.demandMshrMisses::cpu_cluster.cpus.data         1496                       # number of demand (read+write) MSHR misses (Count)
system.cpu_cluster.cpus.dcache.demandMshrMisses::total         1496                       # number of demand (read+write) MSHR misses (Count)
system.cpu_cluster.cpus.dcache.overallMshrMisses::cpu_cluster.cpus.data         1496                       # number of overall MSHR misses (Count)
system.cpu_cluster.cpus.dcache.overallMshrMisses::cpu_cluster.cpus.dcache.prefetcher         1218                       # number of overall MSHR misses (Count)
system.cpu_cluster.cpus.dcache.overallMshrMisses::total         2714                       # number of overall MSHR misses (Count)
system.cpu_cluster.cpus.dcache.demandMshrMissLatency::cpu_cluster.cpus.data     98749250                       # number of demand (read+write) MSHR miss ticks (Tick)
system.cpu_cluster.cpus.dcache.demandMshrMissLatency::total     98749250                       # number of demand (read+write) MSHR miss ticks (Tick)
system.cpu_cluster.cpus.dcache.overallMshrMissLatency::cpu_cluster.cpus.data     98749250                       # number of overall MSHR miss ticks (Tick)
system.cpu_cluster.cpus.dcache.overallMshrMissLatency::cpu_cluster.cpus.dcache.prefetcher     72251282                       # number of overall MSHR miss ticks (Tick)
system.cpu_cluster.cpus.dcache.overallMshrMissLatency::total    171000532                       # number of overall MSHR miss ticks (Tick)
system.cpu_cluster.cpus.dcache.demandMshrMissRate::cpu_cluster.cpus.data     0.000853                       # mshr miss ratio for demand accesses (Ratio)
system.cpu_cluster.cpus.dcache.demandMshrMissRate::total     0.000853                       # mshr miss ratio for demand accesses (Ratio)
system.cpu_cluster.cpus.dcache.overallMshrMissRate::cpu_cluster.cpus.data     0.000853                       # mshr miss ratio for overall accesses (Ratio)
system.cpu_cluster.cpus.dcache.overallMshrMissRate::cpu_cluster.cpus.dcache.prefetcher          inf                       # mshr miss ratio for overall accesses (Ratio)
system.cpu_cluster.cpus.dcache.overallMshrMissRate::total     0.001547                       # mshr miss ratio for overall accesses (Ratio)
system.cpu_cluster.cpus.dcache.demandAvgMshrMissLatency::cpu_cluster.cpus.data 66008.856952                       # average overall mshr miss latency ((Cycle/Count))
system.cpu_cluster.cpus.dcache.demandAvgMshrMissLatency::total 66008.856952                       # average overall mshr miss latency ((Cycle/Count))
system.cpu_cluster.cpus.dcache.overallAvgMshrMissLatency::cpu_cluster.cpus.data 66008.856952                       # average overall mshr miss latency ((Cycle/Count))
system.cpu_cluster.cpus.dcache.overallAvgMshrMissLatency::cpu_cluster.cpus.dcache.prefetcher 59319.607553                       # average overall mshr miss latency ((Cycle/Count))
system.cpu_cluster.cpus.dcache.overallAvgMshrMissLatency::total 63006.828298                       # average overall mshr miss latency ((Cycle/Count))
system.cpu_cluster.cpus.dcache.replacements         2203                       # number of replacements (Count)
system.cpu_cluster.cpus.dcache.HardPFReq.mshrMisses::cpu_cluster.cpus.dcache.prefetcher         1218                       # number of HardPFReq MSHR misses (Count)
system.cpu_cluster.cpus.dcache.HardPFReq.mshrMisses::total         1218                       # number of HardPFReq MSHR misses (Count)
system.cpu_cluster.cpus.dcache.HardPFReq.mshrMissLatency::cpu_cluster.cpus.dcache.prefetcher     72251282                       # number of HardPFReq MSHR miss ticks (Tick)
system.cpu_cluster.cpus.dcache.HardPFReq.mshrMissLatency::total     72251282                       # number of HardPFReq MSHR miss ticks (Tick)
system.cpu_cluster.cpus.dcache.HardPFReq.mshrMissRate::cpu_cluster.cpus.dcache.prefetcher          inf                       # mshr miss rate for HardPFReq accesses (Ratio)
system.cpu_cluster.cpus.dcache.HardPFReq.mshrMissRate::total          inf                       # mshr miss rate for HardPFReq accesses (Ratio)
system.cpu_cluster.cpus.dcache.HardPFReq.avgMshrMissLatency::cpu_cluster.cpus.dcache.prefetcher 59319.607553                       # average HardPFReq mshr miss latency ((Tick/Count))
system.cpu_cluster.cpus.dcache.HardPFReq.avgMshrMissLatency::total 59319.607553                       # average HardPFReq mshr miss latency ((Tick/Count))
system.cpu_cluster.cpus.dcache.LoadLockedReq.hits::cpu_cluster.cpus.data           15                       # number of LoadLockedReq hits (Count)
system.cpu_cluster.cpus.dcache.LoadLockedReq.hits::total           15                       # number of LoadLockedReq hits (Count)
system.cpu_cluster.cpus.dcache.LoadLockedReq.misses::cpu_cluster.cpus.data            1                       # number of LoadLockedReq misses (Count)
system.cpu_cluster.cpus.dcache.LoadLockedReq.misses::total            1                       # number of LoadLockedReq misses (Count)
system.cpu_cluster.cpus.dcache.LoadLockedReq.missLatency::cpu_cluster.cpus.data        83250                       # number of LoadLockedReq miss ticks (Tick)
system.cpu_cluster.cpus.dcache.LoadLockedReq.missLatency::total        83250                       # number of LoadLockedReq miss ticks (Tick)
system.cpu_cluster.cpus.dcache.LoadLockedReq.accesses::cpu_cluster.cpus.data           16                       # number of LoadLockedReq accesses(hits+misses) (Count)
system.cpu_cluster.cpus.dcache.LoadLockedReq.accesses::total           16                       # number of LoadLockedReq accesses(hits+misses) (Count)
system.cpu_cluster.cpus.dcache.LoadLockedReq.missRate::cpu_cluster.cpus.data     0.062500                       # miss rate for LoadLockedReq accesses (Ratio)
system.cpu_cluster.cpus.dcache.LoadLockedReq.missRate::total     0.062500                       # miss rate for LoadLockedReq accesses (Ratio)
system.cpu_cluster.cpus.dcache.LoadLockedReq.avgMissLatency::cpu_cluster.cpus.data        83250                       # average LoadLockedReq miss latency ((Tick/Count))
system.cpu_cluster.cpus.dcache.LoadLockedReq.avgMissLatency::total        83250                       # average LoadLockedReq miss latency ((Tick/Count))
system.cpu_cluster.cpus.dcache.LoadLockedReq.mshrMisses::cpu_cluster.cpus.data            1                       # number of LoadLockedReq MSHR misses (Count)
system.cpu_cluster.cpus.dcache.LoadLockedReq.mshrMisses::total            1                       # number of LoadLockedReq MSHR misses (Count)
system.cpu_cluster.cpus.dcache.LoadLockedReq.mshrMissLatency::cpu_cluster.cpus.data        83000                       # number of LoadLockedReq MSHR miss ticks (Tick)
system.cpu_cluster.cpus.dcache.LoadLockedReq.mshrMissLatency::total        83000                       # number of LoadLockedReq MSHR miss ticks (Tick)
system.cpu_cluster.cpus.dcache.LoadLockedReq.mshrMissRate::cpu_cluster.cpus.data     0.062500                       # mshr miss rate for LoadLockedReq accesses (Ratio)
system.cpu_cluster.cpus.dcache.LoadLockedReq.mshrMissRate::total     0.062500                       # mshr miss rate for LoadLockedReq accesses (Ratio)
system.cpu_cluster.cpus.dcache.LoadLockedReq.avgMshrMissLatency::cpu_cluster.cpus.data        83000                       # average LoadLockedReq mshr miss latency ((Tick/Count))
system.cpu_cluster.cpus.dcache.LoadLockedReq.avgMshrMissLatency::total        83000                       # average LoadLockedReq mshr miss latency ((Tick/Count))
system.cpu_cluster.cpus.dcache.ReadReq.hits::cpu_cluster.cpus.data       712194                       # number of ReadReq hits (Count)
system.cpu_cluster.cpus.dcache.ReadReq.hits::total       712194                       # number of ReadReq hits (Count)
system.cpu_cluster.cpus.dcache.ReadReq.misses::cpu_cluster.cpus.data           62                       # number of ReadReq misses (Count)
system.cpu_cluster.cpus.dcache.ReadReq.misses::total           62                       # number of ReadReq misses (Count)
system.cpu_cluster.cpus.dcache.ReadReq.missLatency::cpu_cluster.cpus.data      3609750                       # number of ReadReq miss ticks (Tick)
system.cpu_cluster.cpus.dcache.ReadReq.missLatency::total      3609750                       # number of ReadReq miss ticks (Tick)
system.cpu_cluster.cpus.dcache.ReadReq.accesses::cpu_cluster.cpus.data       712256                       # number of ReadReq accesses(hits+misses) (Count)
system.cpu_cluster.cpus.dcache.ReadReq.accesses::total       712256                       # number of ReadReq accesses(hits+misses) (Count)
system.cpu_cluster.cpus.dcache.ReadReq.missRate::cpu_cluster.cpus.data     0.000087                       # miss rate for ReadReq accesses (Ratio)
system.cpu_cluster.cpus.dcache.ReadReq.missRate::total     0.000087                       # miss rate for ReadReq accesses (Ratio)
system.cpu_cluster.cpus.dcache.ReadReq.avgMissLatency::cpu_cluster.cpus.data 58221.774194                       # average ReadReq miss latency ((Tick/Count))
system.cpu_cluster.cpus.dcache.ReadReq.avgMissLatency::total 58221.774194                       # average ReadReq miss latency ((Tick/Count))
system.cpu_cluster.cpus.dcache.ReadReq.mshrHits::cpu_cluster.cpus.data            2                       # number of ReadReq MSHR hits (Count)
system.cpu_cluster.cpus.dcache.ReadReq.mshrHits::total            2                       # number of ReadReq MSHR hits (Count)
system.cpu_cluster.cpus.dcache.ReadReq.mshrMisses::cpu_cluster.cpus.data           60                       # number of ReadReq MSHR misses (Count)
system.cpu_cluster.cpus.dcache.ReadReq.mshrMisses::total           60                       # number of ReadReq MSHR misses (Count)
system.cpu_cluster.cpus.dcache.ReadReq.mshrMissLatency::cpu_cluster.cpus.data      3482000                       # number of ReadReq MSHR miss ticks (Tick)
system.cpu_cluster.cpus.dcache.ReadReq.mshrMissLatency::total      3482000                       # number of ReadReq MSHR miss ticks (Tick)
system.cpu_cluster.cpus.dcache.ReadReq.mshrMissRate::cpu_cluster.cpus.data     0.000084                       # mshr miss rate for ReadReq accesses (Ratio)
system.cpu_cluster.cpus.dcache.ReadReq.mshrMissRate::total     0.000084                       # mshr miss rate for ReadReq accesses (Ratio)
system.cpu_cluster.cpus.dcache.ReadReq.avgMshrMissLatency::cpu_cluster.cpus.data 58033.333333                       # average ReadReq mshr miss latency ((Tick/Count))
system.cpu_cluster.cpus.dcache.ReadReq.avgMshrMissLatency::total 58033.333333                       # average ReadReq mshr miss latency ((Tick/Count))
system.cpu_cluster.cpus.dcache.StoreCondReq.hits::cpu_cluster.cpus.data           16                       # number of StoreCondReq hits (Count)
system.cpu_cluster.cpus.dcache.StoreCondReq.hits::total           16                       # number of StoreCondReq hits (Count)
system.cpu_cluster.cpus.dcache.StoreCondReq.accesses::cpu_cluster.cpus.data           16                       # number of StoreCondReq accesses(hits+misses) (Count)
system.cpu_cluster.cpus.dcache.StoreCondReq.accesses::total           16                       # number of StoreCondReq accesses(hits+misses) (Count)
system.cpu_cluster.cpus.dcache.WriteReq.hits::cpu_cluster.cpus.data      1040585                       # number of WriteReq hits (Count)
system.cpu_cluster.cpus.dcache.WriteReq.hits::total      1040585                       # number of WriteReq hits (Count)
system.cpu_cluster.cpus.dcache.WriteReq.misses::cpu_cluster.cpus.data         1578                       # number of WriteReq misses (Count)
system.cpu_cluster.cpus.dcache.WriteReq.misses::total         1578                       # number of WriteReq misses (Count)
system.cpu_cluster.cpus.dcache.WriteReq.missLatency::cpu_cluster.cpus.data    103847750                       # number of WriteReq miss ticks (Tick)
system.cpu_cluster.cpus.dcache.WriteReq.missLatency::total    103847750                       # number of WriteReq miss ticks (Tick)
system.cpu_cluster.cpus.dcache.WriteReq.accesses::cpu_cluster.cpus.data      1042163                       # number of WriteReq accesses(hits+misses) (Count)
system.cpu_cluster.cpus.dcache.WriteReq.accesses::total      1042163                       # number of WriteReq accesses(hits+misses) (Count)
system.cpu_cluster.cpus.dcache.WriteReq.missRate::cpu_cluster.cpus.data     0.001514                       # miss rate for WriteReq accesses (Ratio)
system.cpu_cluster.cpus.dcache.WriteReq.missRate::total     0.001514                       # miss rate for WriteReq accesses (Ratio)
system.cpu_cluster.cpus.dcache.WriteReq.avgMissLatency::cpu_cluster.cpus.data 65809.727503                       # average WriteReq miss latency ((Tick/Count))
system.cpu_cluster.cpus.dcache.WriteReq.avgMissLatency::total 65809.727503                       # average WriteReq miss latency ((Tick/Count))
system.cpu_cluster.cpus.dcache.WriteReq.mshrHits::cpu_cluster.cpus.data          142                       # number of WriteReq MSHR hits (Count)
system.cpu_cluster.cpus.dcache.WriteReq.mshrHits::total          142                       # number of WriteReq MSHR hits (Count)
system.cpu_cluster.cpus.dcache.WriteReq.mshrMisses::cpu_cluster.cpus.data         1436                       # number of WriteReq MSHR misses (Count)
system.cpu_cluster.cpus.dcache.WriteReq.mshrMisses::total         1436                       # number of WriteReq MSHR misses (Count)
system.cpu_cluster.cpus.dcache.WriteReq.mshrMissLatency::cpu_cluster.cpus.data     95267250                       # number of WriteReq MSHR miss ticks (Tick)
system.cpu_cluster.cpus.dcache.WriteReq.mshrMissLatency::total     95267250                       # number of WriteReq MSHR miss ticks (Tick)
system.cpu_cluster.cpus.dcache.WriteReq.mshrMissRate::cpu_cluster.cpus.data     0.001378                       # mshr miss rate for WriteReq accesses (Ratio)
system.cpu_cluster.cpus.dcache.WriteReq.mshrMissRate::total     0.001378                       # mshr miss rate for WriteReq accesses (Ratio)
system.cpu_cluster.cpus.dcache.WriteReq.avgMshrMissLatency::cpu_cluster.cpus.data 66342.096100                       # average WriteReq mshr miss latency ((Tick/Count))
system.cpu_cluster.cpus.dcache.WriteReq.avgMshrMissLatency::total 66342.096100                       # average WriteReq mshr miss latency ((Tick/Count))
system.cpu_cluster.cpus.dcache.power_state.pwrStateResidencyTicks::UNDEFINED   2837681500                       # Cumulative time (in ticks) in various power states (Tick)
system.cpu_cluster.cpus.dcache.prefetcher.demandMshrMisses         1496                       # demands not covered by prefetchs (Count)
system.cpu_cluster.cpus.dcache.prefetcher.pfIssued         1218                       # number of hwpf issued (Count)
system.cpu_cluster.cpus.dcache.prefetcher.pfUseful         1217                       # number of useful prefetch (Count)
system.cpu_cluster.cpus.dcache.prefetcher.pfUsefulButMiss            0                       # number of hit on prefetch but cache block is not in an usable state (Count)
system.cpu_cluster.cpus.dcache.prefetcher.accuracy     0.999179                       # accuracy of the prefetcher (Count)
system.cpu_cluster.cpus.dcache.prefetcher.coverage     0.448581                       # coverage brought by this prefetcher (Count)
system.cpu_cluster.cpus.dcache.prefetcher.pfHitInCache            0                       # number of prefetches hitting in cache (Count)
system.cpu_cluster.cpus.dcache.prefetcher.pfHitInMSHR            0                       # number of prefetches hitting in a MSHR (Count)
system.cpu_cluster.cpus.dcache.prefetcher.pfHitInWB            0                       # number of prefetches hit in the Write Buffer (Count)
system.cpu_cluster.cpus.dcache.prefetcher.pfLate            0                       # number of late prefetches (hitting in cache, MSHR or WB) (Count)
system.cpu_cluster.cpus.dcache.prefetcher.pfIdentified         1218                       # number of prefetch candidates identified (Count)
system.cpu_cluster.cpus.dcache.prefetcher.pfBufferHit            0                       # number of redundant prefetches already in prefetch queue (Count)
system.cpu_cluster.cpus.dcache.prefetcher.pfInCache            0                       # number of redundant prefetches already in cache/mshr dropped (Count)
system.cpu_cluster.cpus.dcache.prefetcher.pfRemovedDemand            0                       # number of prefetches dropped due to a demand for the same address (Count)
system.cpu_cluster.cpus.dcache.prefetcher.pfRemovedFull            0                       # number of prefetches dropped due to prefetch queue size (Count)
system.cpu_cluster.cpus.dcache.prefetcher.pfSpanPage           22                       # number of prefetches that crossed the page (Count)
system.cpu_cluster.cpus.dcache.prefetcher.power_state.pwrStateResidencyTicks::UNDEFINED   2837681500                       # Cumulative time (in ticks) in various power states (Tick)
system.cpu_cluster.cpus.dcache.tags.tagsInUse   488.121364                       # Average ticks per tags in use ((Tick/Count))
system.cpu_cluster.cpus.dcache.tags.totalRefs        18532                       # Total number of references to valid blocks. (Count)
system.cpu_cluster.cpus.dcache.tags.sampledRefs         2203                       # Sample count of references to valid blocks. (Count)
system.cpu_cluster.cpus.dcache.tags.avgRefs     8.412165                       # Average number of references to valid blocks. ((Count/Count))
system.cpu_cluster.cpus.dcache.tags.warmupTick        85000                       # The tick when the warmup percentage was hit. (Tick)
system.cpu_cluster.cpus.dcache.tags.occupancies::cpu_cluster.cpus.data   299.717904                       # Average occupied blocks per tick, per requestor ((Count/Tick))
system.cpu_cluster.cpus.dcache.tags.occupancies::cpu_cluster.cpus.dcache.prefetcher   188.403460                       # Average occupied blocks per tick, per requestor ((Count/Tick))
system.cpu_cluster.cpus.dcache.tags.avgOccs::cpu_cluster.cpus.data     0.585387                       # Average percentage of cache occupancy ((Ratio/Tick))
system.cpu_cluster.cpus.dcache.tags.avgOccs::cpu_cluster.cpus.dcache.prefetcher     0.367976                       # Average percentage of cache occupancy ((Ratio/Tick))
system.cpu_cluster.cpus.dcache.tags.avgOccs::total     0.953362                       # Average percentage of cache occupancy ((Ratio/Tick))
system.cpu_cluster.cpus.dcache.tags.occupanciesTaskId::1022          197                       # Occupied blocks per task id (Count)
system.cpu_cluster.cpus.dcache.tags.occupanciesTaskId::1024          315                       # Occupied blocks per task id (Count)
system.cpu_cluster.cpus.dcache.tags.ageTaskId_1022::0            4                       # Occupied blocks per task id, per block age (Count)
system.cpu_cluster.cpus.dcache.tags.ageTaskId_1022::1           41                       # Occupied blocks per task id, per block age (Count)
system.cpu_cluster.cpus.dcache.tags.ageTaskId_1022::2          152                       # Occupied blocks per task id, per block age (Count)
system.cpu_cluster.cpus.dcache.tags.ageTaskId_1024::0            3                       # Occupied blocks per task id, per block age (Count)
system.cpu_cluster.cpus.dcache.tags.ageTaskId_1024::1           40                       # Occupied blocks per task id, per block age (Count)
system.cpu_cluster.cpus.dcache.tags.ageTaskId_1024::2          186                       # Occupied blocks per task id, per block age (Count)
system.cpu_cluster.cpus.dcache.tags.ageTaskId_1024::3           86                       # Occupied blocks per task id, per block age (Count)
system.cpu_cluster.cpus.dcache.tags.ratioOccsTaskId::1022     0.384766                       # Ratio of occupied blocks and all blocks, per task id (Ratio)
system.cpu_cluster.cpus.dcache.tags.ratioOccsTaskId::1024     0.615234                       # Ratio of occupied blocks and all blocks, per task id (Ratio)
system.cpu_cluster.cpus.dcache.tags.tagAccesses      7020519                       # Number of tag accesses (Count)
system.cpu_cluster.cpus.dcache.tags.dataAccesses      7020519                       # Number of data accesses (Count)
system.cpu_cluster.cpus.dcache.tags.power_state.pwrStateResidencyTicks::UNDEFINED   2837681500                       # Cumulative time (in ticks) in various power states (Tick)
system.cpu_cluster.cpus.fetch2.intInstructions      9143324                       # Number of integer instructions successfully decoded (Count)
system.cpu_cluster.cpus.fetch2.fpInstructions            0                       # Number of floating point instructions successfully decoded (Count)
system.cpu_cluster.cpus.fetch2.vecInstructions       943597                       # Number of SIMD instructions successfully decoded (Count)
system.cpu_cluster.cpus.fetch2.loadInstructions       121765                       # Number of memory load instructions successfully decoded (Count)
system.cpu_cluster.cpus.fetch2.storeInstructions       281679                       # Number of memory store instructions successfully decoded (Count)
system.cpu_cluster.cpus.fetch2.amoInstructions            0                       # Number of memory atomic instructions successfully decoded (Count)
system.cpu_cluster.cpus.icache.demandHits::cpu_cluster.cpus.inst      2476787                       # number of demand (read+write) hits (Count)
system.cpu_cluster.cpus.icache.demandHits::total      2476787                       # number of demand (read+write) hits (Count)
system.cpu_cluster.cpus.icache.overallHits::cpu_cluster.cpus.inst      2476787                       # number of overall hits (Count)
system.cpu_cluster.cpus.icache.overallHits::total      2476787                       # number of overall hits (Count)
system.cpu_cluster.cpus.icache.demandMisses::cpu_cluster.cpus.inst          355                       # number of demand (read+write) misses (Count)
system.cpu_cluster.cpus.icache.demandMisses::total          355                       # number of demand (read+write) misses (Count)
system.cpu_cluster.cpus.icache.overallMisses::cpu_cluster.cpus.inst          355                       # number of overall misses (Count)
system.cpu_cluster.cpus.icache.overallMisses::total          355                       # number of overall misses (Count)
system.cpu_cluster.cpus.icache.demandMissLatency::cpu_cluster.cpus.inst     20357000                       # number of demand (read+write) miss ticks (Tick)
system.cpu_cluster.cpus.icache.demandMissLatency::total     20357000                       # number of demand (read+write) miss ticks (Tick)
system.cpu_cluster.cpus.icache.overallMissLatency::cpu_cluster.cpus.inst     20357000                       # number of overall miss ticks (Tick)
system.cpu_cluster.cpus.icache.overallMissLatency::total     20357000                       # number of overall miss ticks (Tick)
system.cpu_cluster.cpus.icache.demandAccesses::cpu_cluster.cpus.inst      2477142                       # number of demand (read+write) accesses (Count)
system.cpu_cluster.cpus.icache.demandAccesses::total      2477142                       # number of demand (read+write) accesses (Count)
system.cpu_cluster.cpus.icache.overallAccesses::cpu_cluster.cpus.inst      2477142                       # number of overall (read+write) accesses (Count)
system.cpu_cluster.cpus.icache.overallAccesses::total      2477142                       # number of overall (read+write) accesses (Count)
system.cpu_cluster.cpus.icache.demandMissRate::cpu_cluster.cpus.inst     0.000143                       # miss rate for demand accesses (Ratio)
system.cpu_cluster.cpus.icache.demandMissRate::total     0.000143                       # miss rate for demand accesses (Ratio)
system.cpu_cluster.cpus.icache.overallMissRate::cpu_cluster.cpus.inst     0.000143                       # miss rate for overall accesses (Ratio)
system.cpu_cluster.cpus.icache.overallMissRate::total     0.000143                       # miss rate for overall accesses (Ratio)
system.cpu_cluster.cpus.icache.demandAvgMissLatency::cpu_cluster.cpus.inst 57343.661972                       # average overall miss latency ((Cycle/Count))
system.cpu_cluster.cpus.icache.demandAvgMissLatency::total 57343.661972                       # average overall miss latency ((Cycle/Count))
system.cpu_cluster.cpus.icache.overallAvgMissLatency::cpu_cluster.cpus.inst 57343.661972                       # average overall miss latency ((Cycle/Count))
system.cpu_cluster.cpus.icache.overallAvgMissLatency::total 57343.661972                       # average overall miss latency ((Cycle/Count))
system.cpu_cluster.cpus.icache.blockedCycles::no_mshrs            0                       # number of cycles access was blocked (Cycle)
system.cpu_cluster.cpus.icache.blockedCycles::no_targets            0                       # number of cycles access was blocked (Cycle)
system.cpu_cluster.cpus.icache.blockedCauses::no_mshrs            0                       # number of times access was blocked (Count)
system.cpu_cluster.cpus.icache.blockedCauses::no_targets            0                       # number of times access was blocked (Count)
system.cpu_cluster.cpus.icache.avgBlocked::no_mshrs          nan                       # average number of cycles each access was blocked ((Cycle/Count))
system.cpu_cluster.cpus.icache.avgBlocked::no_targets          nan                       # average number of cycles each access was blocked ((Cycle/Count))
system.cpu_cluster.cpus.icache.demandMshrMisses::cpu_cluster.cpus.inst          355                       # number of demand (read+write) MSHR misses (Count)
system.cpu_cluster.cpus.icache.demandMshrMisses::total          355                       # number of demand (read+write) MSHR misses (Count)
system.cpu_cluster.cpus.icache.overallMshrMisses::cpu_cluster.cpus.inst          355                       # number of overall MSHR misses (Count)
system.cpu_cluster.cpus.icache.overallMshrMisses::total          355                       # number of overall MSHR misses (Count)
system.cpu_cluster.cpus.icache.demandMshrMissLatency::cpu_cluster.cpus.inst     20268500                       # number of demand (read+write) MSHR miss ticks (Tick)
system.cpu_cluster.cpus.icache.demandMshrMissLatency::total     20268500                       # number of demand (read+write) MSHR miss ticks (Tick)
system.cpu_cluster.cpus.icache.overallMshrMissLatency::cpu_cluster.cpus.inst     20268500                       # number of overall MSHR miss ticks (Tick)
system.cpu_cluster.cpus.icache.overallMshrMissLatency::total     20268500                       # number of overall MSHR miss ticks (Tick)
system.cpu_cluster.cpus.icache.demandMshrMissRate::cpu_cluster.cpus.inst     0.000143                       # mshr miss ratio for demand accesses (Ratio)
system.cpu_cluster.cpus.icache.demandMshrMissRate::total     0.000143                       # mshr miss ratio for demand accesses (Ratio)
system.cpu_cluster.cpus.icache.overallMshrMissRate::cpu_cluster.cpus.inst     0.000143                       # mshr miss ratio for overall accesses (Ratio)
system.cpu_cluster.cpus.icache.overallMshrMissRate::total     0.000143                       # mshr miss ratio for overall accesses (Ratio)
system.cpu_cluster.cpus.icache.demandAvgMshrMissLatency::cpu_cluster.cpus.inst 57094.366197                       # average overall mshr miss latency ((Cycle/Count))
system.cpu_cluster.cpus.icache.demandAvgMshrMissLatency::total 57094.366197                       # average overall mshr miss latency ((Cycle/Count))
system.cpu_cluster.cpus.icache.overallAvgMshrMissLatency::cpu_cluster.cpus.inst 57094.366197                       # average overall mshr miss latency ((Cycle/Count))
system.cpu_cluster.cpus.icache.overallAvgMshrMissLatency::total 57094.366197                       # average overall mshr miss latency ((Cycle/Count))
system.cpu_cluster.cpus.icache.replacements           72                       # number of replacements (Count)
system.cpu_cluster.cpus.icache.ReadReq.hits::cpu_cluster.cpus.inst      2476787                       # number of ReadReq hits (Count)
system.cpu_cluster.cpus.icache.ReadReq.hits::total      2476787                       # number of ReadReq hits (Count)
system.cpu_cluster.cpus.icache.ReadReq.misses::cpu_cluster.cpus.inst          355                       # number of ReadReq misses (Count)
system.cpu_cluster.cpus.icache.ReadReq.misses::total          355                       # number of ReadReq misses (Count)
system.cpu_cluster.cpus.icache.ReadReq.missLatency::cpu_cluster.cpus.inst     20357000                       # number of ReadReq miss ticks (Tick)
system.cpu_cluster.cpus.icache.ReadReq.missLatency::total     20357000                       # number of ReadReq miss ticks (Tick)
system.cpu_cluster.cpus.icache.ReadReq.accesses::cpu_cluster.cpus.inst      2477142                       # number of ReadReq accesses(hits+misses) (Count)
system.cpu_cluster.cpus.icache.ReadReq.accesses::total      2477142                       # number of ReadReq accesses(hits+misses) (Count)
system.cpu_cluster.cpus.icache.ReadReq.missRate::cpu_cluster.cpus.inst     0.000143                       # miss rate for ReadReq accesses (Ratio)
system.cpu_cluster.cpus.icache.ReadReq.missRate::total     0.000143                       # miss rate for ReadReq accesses (Ratio)
system.cpu_cluster.cpus.icache.ReadReq.avgMissLatency::cpu_cluster.cpus.inst 57343.661972                       # average ReadReq miss latency ((Tick/Count))
system.cpu_cluster.cpus.icache.ReadReq.avgMissLatency::total 57343.661972                       # average ReadReq miss latency ((Tick/Count))
system.cpu_cluster.cpus.icache.ReadReq.mshrMisses::cpu_cluster.cpus.inst          355                       # number of ReadReq MSHR misses (Count)
system.cpu_cluster.cpus.icache.ReadReq.mshrMisses::total          355                       # number of ReadReq MSHR misses (Count)
system.cpu_cluster.cpus.icache.ReadReq.mshrMissLatency::cpu_cluster.cpus.inst     20268500                       # number of ReadReq MSHR miss ticks (Tick)
system.cpu_cluster.cpus.icache.ReadReq.mshrMissLatency::total     20268500                       # number of ReadReq MSHR miss ticks (Tick)
system.cpu_cluster.cpus.icache.ReadReq.mshrMissRate::cpu_cluster.cpus.inst     0.000143                       # mshr miss rate for ReadReq accesses (Ratio)
system.cpu_cluster.cpus.icache.ReadReq.mshrMissRate::total     0.000143                       # mshr miss rate for ReadReq accesses (Ratio)
system.cpu_cluster.cpus.icache.ReadReq.avgMshrMissLatency::cpu_cluster.cpus.inst 57094.366197                       # average ReadReq mshr miss latency ((Tick/Count))
system.cpu_cluster.cpus.icache.ReadReq.avgMshrMissLatency::total 57094.366197                       # average ReadReq mshr miss latency ((Tick/Count))
system.cpu_cluster.cpus.icache.power_state.pwrStateResidencyTicks::UNDEFINED   2837681500                       # Cumulative time (in ticks) in various power states (Tick)
system.cpu_cluster.cpus.icache.tags.tagsInUse   280.747473                       # Average ticks per tags in use ((Tick/Count))
system.cpu_cluster.cpus.icache.tags.totalRefs          475                       # Total number of references to valid blocks. (Count)
system.cpu_cluster.cpus.icache.tags.sampledRefs           72                       # Sample count of references to valid blocks. (Count)
system.cpu_cluster.cpus.icache.tags.avgRefs     6.597222                       # Average number of references to valid blocks. ((Count/Count))
system.cpu_cluster.cpus.icache.tags.warmupTick        78500                       # The tick when the warmup percentage was hit. (Tick)
system.cpu_cluster.cpus.icache.tags.occupancies::cpu_cluster.cpus.inst   280.747473                       # Average occupied blocks per tick, per requestor ((Count/Tick))
system.cpu_cluster.cpus.icache.tags.avgOccs::cpu_cluster.cpus.inst     0.548335                       # Average percentage of cache occupancy ((Ratio/Tick))
system.cpu_cluster.cpus.icache.tags.avgOccs::total     0.548335                       # Average percentage of cache occupancy ((Ratio/Tick))
system.cpu_cluster.cpus.icache.tags.occupanciesTaskId::1024          282                       # Occupied blocks per task id (Count)
system.cpu_cluster.cpus.icache.tags.ageTaskId_1024::0            1                       # Occupied blocks per task id, per block age (Count)
system.cpu_cluster.cpus.icache.tags.ageTaskId_1024::3          281                       # Occupied blocks per task id, per block age (Count)
system.cpu_cluster.cpus.icache.tags.ratioOccsTaskId::1024     0.550781                       # Ratio of occupied blocks and all blocks, per task id (Ratio)
system.cpu_cluster.cpus.icache.tags.tagAccesses      4954638                       # Number of tag accesses (Count)
system.cpu_cluster.cpus.icache.tags.dataAccesses      4954638                       # Number of data accesses (Count)
system.cpu_cluster.cpus.icache.tags.power_state.pwrStateResidencyTicks::UNDEFINED   2837681500                       # Cumulative time (in ticks) in various power states (Tick)
system.cpu_cluster.cpus.mmu.alignFaults             0                       # Number of MMU faults due to alignment restrictions (Count)
system.cpu_cluster.cpus.mmu.prefetchFaults            0                       # Number of MMU faults due to prefetch (Count)
system.cpu_cluster.cpus.mmu.domainFaults            0                       # Number of MMU faults due to domain restrictions (Count)
system.cpu_cluster.cpus.mmu.permsFaults             0                       # Number of MMU faults due to permissions restrictions (Count)
system.cpu_cluster.cpus.mmu.dtb.readHits            0                       # Read hits (Count)
system.cpu_cluster.cpus.mmu.dtb.readMisses            0                       # Read misses (Count)
system.cpu_cluster.cpus.mmu.dtb.writeHits            0                       # Write hits (Count)
system.cpu_cluster.cpus.mmu.dtb.writeMisses            0                       # Write misses (Count)
system.cpu_cluster.cpus.mmu.dtb.inserts             0                       # Number of times an entry is inserted into the TLB (Count)
system.cpu_cluster.cpus.mmu.dtb.flushTlb            0                       # Number of times complete TLB was flushed (Count)
system.cpu_cluster.cpus.mmu.dtb.flushTlbMva            0                       # Number of times TLB was flushed by MVA (Count)
system.cpu_cluster.cpus.mmu.dtb.flushTlbMvaAsid            0                       # Number of times TLB was flushed by MVA & ASID (Count)
system.cpu_cluster.cpus.mmu.dtb.flushTlbAsid            0                       # Number of times TLB was flushed by ASID (Count)
system.cpu_cluster.cpus.mmu.dtb.flushedEntries            0                       # Number of entries that have been flushed from TLB (Count)
system.cpu_cluster.cpus.mmu.dtb.readAccesses            0                       # Read accesses (Count)
system.cpu_cluster.cpus.mmu.dtb.writeAccesses            0                       # Write accesses (Count)
system.cpu_cluster.cpus.mmu.dtb.hits                0                       # Total TLB (inst and data) hits (Count)
system.cpu_cluster.cpus.mmu.dtb.misses              0                       # Total TLB (inst and data) misses (Count)
system.cpu_cluster.cpus.mmu.dtb.accesses            0                       # Total TLB (inst and data) accesses (Count)
system.cpu_cluster.cpus.mmu.dtb_walker.walks            0                       # Table walker walks requested (Count)
system.cpu_cluster.cpus.mmu.dtb_walker.requestOrigin_Requested::Data            0                       # Table walker requests started/completed, data/inst (Count)
system.cpu_cluster.cpus.mmu.dtb_walker.requestOrigin_Requested::Inst            0                       # Table walker requests started/completed, data/inst (Count)
system.cpu_cluster.cpus.mmu.dtb_walker.requestOrigin_Requested::total            0                       # Table walker requests started/completed, data/inst (Count)
system.cpu_cluster.cpus.mmu.dtb_walker.requestOrigin_Completed::Data            0                       # Table walker requests started/completed, data/inst (Count)
system.cpu_cluster.cpus.mmu.dtb_walker.requestOrigin_Completed::Inst            0                       # Table walker requests started/completed, data/inst (Count)
system.cpu_cluster.cpus.mmu.dtb_walker.requestOrigin_Completed::total            0                       # Table walker requests started/completed, data/inst (Count)
system.cpu_cluster.cpus.mmu.dtb_walker.requestOrigin::total            0                       # Table walker requests started/completed, data/inst (Count)
system.cpu_cluster.cpus.mmu.dtb_walker.power_state.pwrStateResidencyTicks::UNDEFINED   2837681500                       # Cumulative time (in ticks) in various power states (Tick)
system.cpu_cluster.cpus.mmu.itb.instHits            0                       # Inst hits (Count)
system.cpu_cluster.cpus.mmu.itb.instMisses            0                       # Inst misses (Count)
system.cpu_cluster.cpus.mmu.itb.inserts             0                       # Number of times an entry is inserted into the TLB (Count)
system.cpu_cluster.cpus.mmu.itb.flushTlb            0                       # Number of times complete TLB was flushed (Count)
system.cpu_cluster.cpus.mmu.itb.flushTlbMva            0                       # Number of times TLB was flushed by MVA (Count)
system.cpu_cluster.cpus.mmu.itb.flushTlbMvaAsid            0                       # Number of times TLB was flushed by MVA & ASID (Count)
system.cpu_cluster.cpus.mmu.itb.flushTlbAsid            0                       # Number of times TLB was flushed by ASID (Count)
system.cpu_cluster.cpus.mmu.itb.flushedEntries            0                       # Number of entries that have been flushed from TLB (Count)
system.cpu_cluster.cpus.mmu.itb.instAccesses            0                       # Inst accesses (Count)
system.cpu_cluster.cpus.mmu.itb.hits                0                       # Total TLB (inst and data) hits (Count)
system.cpu_cluster.cpus.mmu.itb.misses              0                       # Total TLB (inst and data) misses (Count)
system.cpu_cluster.cpus.mmu.itb.accesses            0                       # Total TLB (inst and data) accesses (Count)
system.cpu_cluster.cpus.mmu.itb_walker.walks            0                       # Table walker walks requested (Count)
system.cpu_cluster.cpus.mmu.itb_walker.requestOrigin_Requested::Data            0                       # Table walker requests started/completed, data/inst (Count)
system.cpu_cluster.cpus.mmu.itb_walker.requestOrigin_Requested::Inst            0                       # Table walker requests started/completed, data/inst (Count)
system.cpu_cluster.cpus.mmu.itb_walker.requestOrigin_Requested::total            0                       # Table walker requests started/completed, data/inst (Count)
system.cpu_cluster.cpus.mmu.itb_walker.requestOrigin_Completed::Data            0                       # Table walker requests started/completed, data/inst (Count)
system.cpu_cluster.cpus.mmu.itb_walker.requestOrigin_Completed::Inst            0                       # Table walker requests started/completed, data/inst (Count)
system.cpu_cluster.cpus.mmu.itb_walker.requestOrigin_Completed::total            0                       # Table walker requests started/completed, data/inst (Count)
system.cpu_cluster.cpus.mmu.itb_walker.requestOrigin::total            0                       # Table walker requests started/completed, data/inst (Count)
system.cpu_cluster.cpus.mmu.itb_walker.power_state.pwrStateResidencyTicks::UNDEFINED   2837681500                       # Cumulative time (in ticks) in various power states (Tick)
system.cpu_cluster.cpus.mmu.l2_shared.instHits            0                       # Inst hits (Count)
system.cpu_cluster.cpus.mmu.l2_shared.instMisses            0                       # Inst misses (Count)
system.cpu_cluster.cpus.mmu.l2_shared.inserts            0                       # Number of times an entry is inserted into the TLB (Count)
system.cpu_cluster.cpus.mmu.l2_shared.flushTlb            0                       # Number of times complete TLB was flushed (Count)
system.cpu_cluster.cpus.mmu.l2_shared.flushTlbMva            0                       # Number of times TLB was flushed by MVA (Count)
system.cpu_cluster.cpus.mmu.l2_shared.flushTlbMvaAsid            0                       # Number of times TLB was flushed by MVA & ASID (Count)
system.cpu_cluster.cpus.mmu.l2_shared.flushTlbAsid            0                       # Number of times TLB was flushed by ASID (Count)
system.cpu_cluster.cpus.mmu.l2_shared.flushedEntries            0                       # Number of entries that have been flushed from TLB (Count)
system.cpu_cluster.cpus.mmu.l2_shared.instAccesses            0                       # Inst accesses (Count)
system.cpu_cluster.cpus.mmu.l2_shared.hits            0                       # Total TLB (inst and data) hits (Count)
system.cpu_cluster.cpus.mmu.l2_shared.misses            0                       # Total TLB (inst and data) misses (Count)
system.cpu_cluster.cpus.mmu.l2_shared.accesses            0                       # Total TLB (inst and data) accesses (Count)
system.cpu_cluster.cpus.mmu.stage2_dtb.readHits            0                       # Read hits (Count)
system.cpu_cluster.cpus.mmu.stage2_dtb.readMisses            0                       # Read misses (Count)
system.cpu_cluster.cpus.mmu.stage2_dtb.writeHits            0                       # Write hits (Count)
system.cpu_cluster.cpus.mmu.stage2_dtb.writeMisses            0                       # Write misses (Count)
system.cpu_cluster.cpus.mmu.stage2_dtb.inserts            0                       # Number of times an entry is inserted into the TLB (Count)
system.cpu_cluster.cpus.mmu.stage2_dtb.flushTlb            0                       # Number of times complete TLB was flushed (Count)
system.cpu_cluster.cpus.mmu.stage2_dtb.flushTlbMva            0                       # Number of times TLB was flushed by MVA (Count)
system.cpu_cluster.cpus.mmu.stage2_dtb.flushTlbMvaAsid            0                       # Number of times TLB was flushed by MVA & ASID (Count)
system.cpu_cluster.cpus.mmu.stage2_dtb.flushTlbAsid            0                       # Number of times TLB was flushed by ASID (Count)
system.cpu_cluster.cpus.mmu.stage2_dtb.flushedEntries            0                       # Number of entries that have been flushed from TLB (Count)
system.cpu_cluster.cpus.mmu.stage2_dtb.readAccesses            0                       # Read accesses (Count)
system.cpu_cluster.cpus.mmu.stage2_dtb.writeAccesses            0                       # Write accesses (Count)
system.cpu_cluster.cpus.mmu.stage2_dtb.hits            0                       # Total TLB (inst and data) hits (Count)
system.cpu_cluster.cpus.mmu.stage2_dtb.misses            0                       # Total TLB (inst and data) misses (Count)
system.cpu_cluster.cpus.mmu.stage2_dtb.accesses            0                       # Total TLB (inst and data) accesses (Count)
system.cpu_cluster.cpus.mmu.stage2_dtb_walker.walks            0                       # Table walker walks requested (Count)
system.cpu_cluster.cpus.mmu.stage2_dtb_walker.requestOrigin_Requested::Data            0                       # Table walker requests started/completed, data/inst (Count)
system.cpu_cluster.cpus.mmu.stage2_dtb_walker.requestOrigin_Requested::Inst            0                       # Table walker requests started/completed, data/inst (Count)
system.cpu_cluster.cpus.mmu.stage2_dtb_walker.requestOrigin_Requested::total            0                       # Table walker requests started/completed, data/inst (Count)
system.cpu_cluster.cpus.mmu.stage2_dtb_walker.requestOrigin_Completed::Data            0                       # Table walker requests started/completed, data/inst (Count)
system.cpu_cluster.cpus.mmu.stage2_dtb_walker.requestOrigin_Completed::Inst            0                       # Table walker requests started/completed, data/inst (Count)
system.cpu_cluster.cpus.mmu.stage2_dtb_walker.requestOrigin_Completed::total            0                       # Table walker requests started/completed, data/inst (Count)
system.cpu_cluster.cpus.mmu.stage2_dtb_walker.requestOrigin::total            0                       # Table walker requests started/completed, data/inst (Count)
system.cpu_cluster.cpus.mmu.stage2_dtb_walker.power_state.pwrStateResidencyTicks::UNDEFINED   2837681500                       # Cumulative time (in ticks) in various power states (Tick)
system.cpu_cluster.cpus.mmu.stage2_itb.instHits            0                       # Inst hits (Count)
system.cpu_cluster.cpus.mmu.stage2_itb.instMisses            0                       # Inst misses (Count)
system.cpu_cluster.cpus.mmu.stage2_itb.inserts            0                       # Number of times an entry is inserted into the TLB (Count)
system.cpu_cluster.cpus.mmu.stage2_itb.flushTlb            0                       # Number of times complete TLB was flushed (Count)
system.cpu_cluster.cpus.mmu.stage2_itb.flushTlbMva            0                       # Number of times TLB was flushed by MVA (Count)
system.cpu_cluster.cpus.mmu.stage2_itb.flushTlbMvaAsid            0                       # Number of times TLB was flushed by MVA & ASID (Count)
system.cpu_cluster.cpus.mmu.stage2_itb.flushTlbAsid            0                       # Number of times TLB was flushed by ASID (Count)
system.cpu_cluster.cpus.mmu.stage2_itb.flushedEntries            0                       # Number of entries that have been flushed from TLB (Count)
system.cpu_cluster.cpus.mmu.stage2_itb.instAccesses            0                       # Inst accesses (Count)
system.cpu_cluster.cpus.mmu.stage2_itb.hits            0                       # Total TLB (inst and data) hits (Count)
system.cpu_cluster.cpus.mmu.stage2_itb.misses            0                       # Total TLB (inst and data) misses (Count)
system.cpu_cluster.cpus.mmu.stage2_itb.accesses            0                       # Total TLB (inst and data) accesses (Count)
system.cpu_cluster.cpus.mmu.stage2_itb_walker.walks            0                       # Table walker walks requested (Count)
system.cpu_cluster.cpus.mmu.stage2_itb_walker.requestOrigin_Requested::Data            0                       # Table walker requests started/completed, data/inst (Count)
system.cpu_cluster.cpus.mmu.stage2_itb_walker.requestOrigin_Requested::Inst            0                       # Table walker requests started/completed, data/inst (Count)
system.cpu_cluster.cpus.mmu.stage2_itb_walker.requestOrigin_Requested::total            0                       # Table walker requests started/completed, data/inst (Count)
system.cpu_cluster.cpus.mmu.stage2_itb_walker.requestOrigin_Completed::Data            0                       # Table walker requests started/completed, data/inst (Count)
system.cpu_cluster.cpus.mmu.stage2_itb_walker.requestOrigin_Completed::Inst            0                       # Table walker requests started/completed, data/inst (Count)
system.cpu_cluster.cpus.mmu.stage2_itb_walker.requestOrigin_Completed::total            0                       # Table walker requests started/completed, data/inst (Count)
system.cpu_cluster.cpus.mmu.stage2_itb_walker.requestOrigin::total            0                       # Table walker requests started/completed, data/inst (Count)
system.cpu_cluster.cpus.mmu.stage2_itb_walker.power_state.pwrStateResidencyTicks::UNDEFINED   2837681500                       # Cumulative time (in ticks) in various power states (Tick)
system.cpu_cluster.cpus.power_state.pwrStateResidencyTicks::ON   2837681500                       # Cumulative time (in ticks) in various power states (Tick)
system.cpu_cluster.cpus.thread_0.numInsts     12294533                       # Number of Instructions committed (Count)
system.cpu_cluster.cpus.thread_0.numOps      13175796                       # Number of Ops committed (Count)
system.cpu_cluster.cpus.thread_0.numMemRefs            0                       # Number of Memory References (Count)
system.cpu_cluster.cpus.workload.numSyscalls            7                       # Number of system calls (Count)
system.cpu_cluster.l2.demandHits::cpu_cluster.cpus.inst           21                       # number of demand (read+write) hits (Count)
system.cpu_cluster.l2.demandHits::cpu_cluster.cpus.data            4                       # number of demand (read+write) hits (Count)
system.cpu_cluster.l2.demandHits::cpu_cluster.cpus.dcache.prefetcher            2                       # number of demand (read+write) hits (Count)
system.cpu_cluster.l2.demandHits::total            27                       # number of demand (read+write) hits (Count)
system.cpu_cluster.l2.overallHits::cpu_cluster.cpus.inst           21                       # number of overall hits (Count)
system.cpu_cluster.l2.overallHits::cpu_cluster.cpus.data            4                       # number of overall hits (Count)
system.cpu_cluster.l2.overallHits::cpu_cluster.cpus.dcache.prefetcher            2                       # number of overall hits (Count)
system.cpu_cluster.l2.overallHits::total           27                       # number of overall hits (Count)
system.cpu_cluster.l2.demandMisses::cpu_cluster.cpus.inst          334                       # number of demand (read+write) misses (Count)
system.cpu_cluster.l2.demandMisses::cpu_cluster.cpus.data         1493                       # number of demand (read+write) misses (Count)
system.cpu_cluster.l2.demandMisses::cpu_cluster.cpus.dcache.prefetcher         1216                       # number of demand (read+write) misses (Count)
system.cpu_cluster.l2.demandMisses::total         3043                       # number of demand (read+write) misses (Count)
system.cpu_cluster.l2.overallMisses::cpu_cluster.cpus.inst          334                       # number of overall misses (Count)
system.cpu_cluster.l2.overallMisses::cpu_cluster.cpus.data         1493                       # number of overall misses (Count)
system.cpu_cluster.l2.overallMisses::cpu_cluster.cpus.dcache.prefetcher         1216                       # number of overall misses (Count)
system.cpu_cluster.l2.overallMisses::total         3043                       # number of overall misses (Count)
system.cpu_cluster.l2.demandMissLatency::cpu_cluster.cpus.inst     20016250                       # number of demand (read+write) miss ticks (Tick)
system.cpu_cluster.l2.demandMissLatency::cpu_cluster.cpus.data     98068500                       # number of demand (read+write) miss ticks (Tick)
system.cpu_cluster.l2.demandMissLatency::cpu_cluster.cpus.dcache.prefetcher     71862092                       # number of demand (read+write) miss ticks (Tick)
system.cpu_cluster.l2.demandMissLatency::total    189946842                       # number of demand (read+write) miss ticks (Tick)
system.cpu_cluster.l2.overallMissLatency::cpu_cluster.cpus.inst     20016250                       # number of overall miss ticks (Tick)
system.cpu_cluster.l2.overallMissLatency::cpu_cluster.cpus.data     98068500                       # number of overall miss ticks (Tick)
system.cpu_cluster.l2.overallMissLatency::cpu_cluster.cpus.dcache.prefetcher     71862092                       # number of overall miss ticks (Tick)
system.cpu_cluster.l2.overallMissLatency::total    189946842                       # number of overall miss ticks (Tick)
system.cpu_cluster.l2.demandAccesses::cpu_cluster.cpus.inst          355                       # number of demand (read+write) accesses (Count)
system.cpu_cluster.l2.demandAccesses::cpu_cluster.cpus.data         1497                       # number of demand (read+write) accesses (Count)
system.cpu_cluster.l2.demandAccesses::cpu_cluster.cpus.dcache.prefetcher         1218                       # number of demand (read+write) accesses (Count)
system.cpu_cluster.l2.demandAccesses::total         3070                       # number of demand (read+write) accesses (Count)
system.cpu_cluster.l2.overallAccesses::cpu_cluster.cpus.inst          355                       # number of overall (read+write) accesses (Count)
system.cpu_cluster.l2.overallAccesses::cpu_cluster.cpus.data         1497                       # number of overall (read+write) accesses (Count)
system.cpu_cluster.l2.overallAccesses::cpu_cluster.cpus.dcache.prefetcher         1218                       # number of overall (read+write) accesses (Count)
system.cpu_cluster.l2.overallAccesses::total         3070                       # number of overall (read+write) accesses (Count)
system.cpu_cluster.l2.demandMissRate::cpu_cluster.cpus.inst     0.940845                       # miss rate for demand accesses (Ratio)
system.cpu_cluster.l2.demandMissRate::cpu_cluster.cpus.data     0.997328                       # miss rate for demand accesses (Ratio)
system.cpu_cluster.l2.demandMissRate::cpu_cluster.cpus.dcache.prefetcher     0.998358                       # miss rate for demand accesses (Ratio)
system.cpu_cluster.l2.demandMissRate::total     0.991205                       # miss rate for demand accesses (Ratio)
system.cpu_cluster.l2.overallMissRate::cpu_cluster.cpus.inst     0.940845                       # miss rate for overall accesses (Ratio)
system.cpu_cluster.l2.overallMissRate::cpu_cluster.cpus.data     0.997328                       # miss rate for overall accesses (Ratio)
system.cpu_cluster.l2.overallMissRate::cpu_cluster.cpus.dcache.prefetcher     0.998358                       # miss rate for overall accesses (Ratio)
system.cpu_cluster.l2.overallMissRate::total     0.991205                       # miss rate for overall accesses (Ratio)
system.cpu_cluster.l2.demandAvgMissLatency::cpu_cluster.cpus.inst 59928.892216                       # average overall miss latency ((Cycle/Count))
system.cpu_cluster.l2.demandAvgMissLatency::cpu_cluster.cpus.data 65685.532485                       # average overall miss latency ((Cycle/Count))
system.cpu_cluster.l2.demandAvgMissLatency::cpu_cluster.cpus.dcache.prefetcher 59097.115132                       # average overall miss latency ((Cycle/Count))
system.cpu_cluster.l2.demandAvgMissLatency::total 62420.914229                       # average overall miss latency ((Cycle/Count))
system.cpu_cluster.l2.overallAvgMissLatency::cpu_cluster.cpus.inst 59928.892216                       # average overall miss latency ((Cycle/Count))
system.cpu_cluster.l2.overallAvgMissLatency::cpu_cluster.cpus.data 65685.532485                       # average overall miss latency ((Cycle/Count))
system.cpu_cluster.l2.overallAvgMissLatency::cpu_cluster.cpus.dcache.prefetcher 59097.115132                       # average overall miss latency ((Cycle/Count))
system.cpu_cluster.l2.overallAvgMissLatency::total 62420.914229                       # average overall miss latency ((Cycle/Count))
system.cpu_cluster.l2.blockedCycles::no_mshrs            0                       # number of cycles access was blocked (Cycle)
system.cpu_cluster.l2.blockedCycles::no_targets            0                       # number of cycles access was blocked (Cycle)
system.cpu_cluster.l2.blockedCauses::no_mshrs            0                       # number of times access was blocked (Count)
system.cpu_cluster.l2.blockedCauses::no_targets            0                       # number of times access was blocked (Count)
system.cpu_cluster.l2.avgBlocked::no_mshrs          nan                       # average number of cycles each access was blocked ((Cycle/Count))
system.cpu_cluster.l2.avgBlocked::no_targets          nan                       # average number of cycles each access was blocked ((Cycle/Count))
system.cpu_cluster.l2.demandMshrHits::cpu_cluster.cpus.inst            2                       # number of demand (read+write) MSHR hits (Count)
system.cpu_cluster.l2.demandMshrHits::total            2                       # number of demand (read+write) MSHR hits (Count)
system.cpu_cluster.l2.overallMshrHits::cpu_cluster.cpus.inst            2                       # number of overall MSHR hits (Count)
system.cpu_cluster.l2.overallMshrHits::total            2                       # number of overall MSHR hits (Count)
system.cpu_cluster.l2.demandMshrMisses::cpu_cluster.cpus.inst          332                       # number of demand (read+write) MSHR misses (Count)
system.cpu_cluster.l2.demandMshrMisses::cpu_cluster.cpus.data         1493                       # number of demand (read+write) MSHR misses (Count)
system.cpu_cluster.l2.demandMshrMisses::cpu_cluster.cpus.dcache.prefetcher         1216                       # number of demand (read+write) MSHR misses (Count)
system.cpu_cluster.l2.demandMshrMisses::total         3041                       # number of demand (read+write) MSHR misses (Count)
system.cpu_cluster.l2.overallMshrMisses::cpu_cluster.cpus.inst          332                       # number of overall MSHR misses (Count)
system.cpu_cluster.l2.overallMshrMisses::cpu_cluster.cpus.data         1493                       # number of overall MSHR misses (Count)
system.cpu_cluster.l2.overallMshrMisses::cpu_cluster.cpus.dcache.prefetcher         1216                       # number of overall MSHR misses (Count)
system.cpu_cluster.l2.overallMshrMisses::total         3041                       # number of overall MSHR misses (Count)
system.cpu_cluster.l2.demandMshrMissLatency::cpu_cluster.cpus.inst     19565000                       # number of demand (read+write) MSHR miss ticks (Tick)
system.cpu_cluster.l2.demandMshrMissLatency::cpu_cluster.cpus.data     96202250                       # number of demand (read+write) MSHR miss ticks (Tick)
system.cpu_cluster.l2.demandMshrMissLatency::cpu_cluster.cpus.dcache.prefetcher     70342092                       # number of demand (read+write) MSHR miss ticks (Tick)
system.cpu_cluster.l2.demandMshrMissLatency::total    186109342                       # number of demand (read+write) MSHR miss ticks (Tick)
system.cpu_cluster.l2.overallMshrMissLatency::cpu_cluster.cpus.inst     19565000                       # number of overall MSHR miss ticks (Tick)
system.cpu_cluster.l2.overallMshrMissLatency::cpu_cluster.cpus.data     96202250                       # number of overall MSHR miss ticks (Tick)
system.cpu_cluster.l2.overallMshrMissLatency::cpu_cluster.cpus.dcache.prefetcher     70342092                       # number of overall MSHR miss ticks (Tick)
system.cpu_cluster.l2.overallMshrMissLatency::total    186109342                       # number of overall MSHR miss ticks (Tick)
system.cpu_cluster.l2.demandMshrMissRate::cpu_cluster.cpus.inst     0.935211                       # mshr miss ratio for demand accesses (Ratio)
system.cpu_cluster.l2.demandMshrMissRate::cpu_cluster.cpus.data     0.997328                       # mshr miss ratio for demand accesses (Ratio)
system.cpu_cluster.l2.demandMshrMissRate::cpu_cluster.cpus.dcache.prefetcher     0.998358                       # mshr miss ratio for demand accesses (Ratio)
system.cpu_cluster.l2.demandMshrMissRate::total     0.990554                       # mshr miss ratio for demand accesses (Ratio)
system.cpu_cluster.l2.overallMshrMissRate::cpu_cluster.cpus.inst     0.935211                       # mshr miss ratio for overall accesses (Ratio)
system.cpu_cluster.l2.overallMshrMissRate::cpu_cluster.cpus.data     0.997328                       # mshr miss ratio for overall accesses (Ratio)
system.cpu_cluster.l2.overallMshrMissRate::cpu_cluster.cpus.dcache.prefetcher     0.998358                       # mshr miss ratio for overall accesses (Ratio)
system.cpu_cluster.l2.overallMshrMissRate::total     0.990554                       # mshr miss ratio for overall accesses (Ratio)
system.cpu_cluster.l2.demandAvgMshrMissLatency::cpu_cluster.cpus.inst 58930.722892                       # average overall mshr miss latency ((Cycle/Count))
system.cpu_cluster.l2.demandAvgMshrMissLatency::cpu_cluster.cpus.data 64435.532485                       # average overall mshr miss latency ((Cycle/Count))
system.cpu_cluster.l2.demandAvgMshrMissLatency::cpu_cluster.cpus.dcache.prefetcher 57847.115132                       # average overall mshr miss latency ((Cycle/Count))
system.cpu_cluster.l2.demandAvgMshrMissLatency::total 61200.046695                       # average overall mshr miss latency ((Cycle/Count))
system.cpu_cluster.l2.overallAvgMshrMissLatency::cpu_cluster.cpus.inst 58930.722892                       # average overall mshr miss latency ((Cycle/Count))
system.cpu_cluster.l2.overallAvgMshrMissLatency::cpu_cluster.cpus.data 64435.532485                       # average overall mshr miss latency ((Cycle/Count))
system.cpu_cluster.l2.overallAvgMshrMissLatency::cpu_cluster.cpus.dcache.prefetcher 57847.115132                       # average overall mshr miss latency ((Cycle/Count))
system.cpu_cluster.l2.overallAvgMshrMissLatency::total 61200.046695                       # average overall mshr miss latency ((Cycle/Count))
system.cpu_cluster.l2.replacements                  0                       # number of replacements (Count)
system.cpu_cluster.l2.ReadExReq.misses::cpu_cluster.cpus.data         1436                       # number of ReadExReq misses (Count)
system.cpu_cluster.l2.ReadExReq.misses::total         1436                       # number of ReadExReq misses (Count)
system.cpu_cluster.l2.ReadExReq.missLatency::cpu_cluster.cpus.data     94549000                       # number of ReadExReq miss ticks (Tick)
system.cpu_cluster.l2.ReadExReq.missLatency::total     94549000                       # number of ReadExReq miss ticks (Tick)
system.cpu_cluster.l2.ReadExReq.accesses::cpu_cluster.cpus.data         1436                       # number of ReadExReq accesses(hits+misses) (Count)
system.cpu_cluster.l2.ReadExReq.accesses::total         1436                       # number of ReadExReq accesses(hits+misses) (Count)
system.cpu_cluster.l2.ReadExReq.missRate::cpu_cluster.cpus.data            1                       # miss rate for ReadExReq accesses (Ratio)
system.cpu_cluster.l2.ReadExReq.missRate::total            1                       # miss rate for ReadExReq accesses (Ratio)
system.cpu_cluster.l2.ReadExReq.avgMissLatency::cpu_cluster.cpus.data 65841.922006                       # average ReadExReq miss latency ((Tick/Count))
system.cpu_cluster.l2.ReadExReq.avgMissLatency::total 65841.922006                       # average ReadExReq miss latency ((Tick/Count))
system.cpu_cluster.l2.ReadExReq.mshrMisses::cpu_cluster.cpus.data         1436                       # number of ReadExReq MSHR misses (Count)
system.cpu_cluster.l2.ReadExReq.mshrMisses::total         1436                       # number of ReadExReq MSHR misses (Count)
system.cpu_cluster.l2.ReadExReq.mshrMissLatency::cpu_cluster.cpus.data     92754000                       # number of ReadExReq MSHR miss ticks (Tick)
system.cpu_cluster.l2.ReadExReq.mshrMissLatency::total     92754000                       # number of ReadExReq MSHR miss ticks (Tick)
[...]
system.mem_ctrls1.dram.numReads::total            173                       # Number of read requests responded to by this memory (Count)
system.mem_ctrls1.dram.bwRead::cpu_cluster.cpus.inst    251317839                       # Total read bandwidth from this memory ((Byte/Second))
system.mem_ctrls1.dram.bwRead::cpu_cluster.cpus.data     63740032                       # Total read bandwidth from this memory ((Byte/Second))
system.mem_ctrls1.dram.bwRead::total        315057871                       # Total read bandwidth from this memory ((Byte/Second))
system.mem_ctrls1.dram.bwInstRead::cpu_cluster.cpus.inst    251317839                       # Instruction read bandwidth from this memory ((Byte/Second))
system.mem_ctrls1.dram.bwInstRead::total    251317839                       # Instruction read bandwidth from this memory ((Byte/Second))
system.mem_ctrls1.dram.bwTotal::cpu_cluster.cpus.inst    251317839                       # Total bandwidth to/from this memory ((Byte/Second))
system.mem_ctrls1.dram.bwTotal::cpu_cluster.cpus.data     63740032                       # Total bandwidth to/from this memory ((Byte/Second))
system.mem_ctrls1.dram.bwTotal::total       315057871                       # Total bandwidth to/from this memory ((Byte/Second))
system.mem_ctrls1.dram.readBursts                 173                       # Number of DRAM read bursts (Count)
system.mem_ctrls1.dram.writeBursts                  0                       # Number of DRAM write bursts (Count)
system.mem_ctrls1.dram.perBankRdBursts::0            3                       # Per bank write bursts (Count)
system.mem_ctrls1.dram.perBankRdBursts::1            0                       # Per bank write bursts (Count)
system.mem_ctrls1.dram.perBankRdBursts::2            7                       # Per bank write bursts (Count)
system.mem_ctrls1.dram.perBankRdBursts::3            5                       # Per bank write bursts (Count)
system.mem_ctrls1.dram.perBankRdBursts::4           12                       # Per bank write bursts (Count)
system.mem_ctrls1.dram.perBankRdBursts::5           24                       # Per bank write bursts (Count)
system.mem_ctrls1.dram.perBankRdBursts::6           14                       # Per bank write bursts (Count)
system.mem_ctrls1.dram.perBankRdBursts::7           20                       # Per bank write bursts (Count)
system.mem_ctrls1.dram.perBankRdBursts::8            0                       # Per bank write bursts (Count)
system.mem_ctrls1.dram.perBankRdBursts::9            6                       # Per bank write bursts (Count)
system.mem_ctrls1.dram.perBankRdBursts::10            3                       # Per bank write bursts (Count)
system.mem_ctrls1.dram.perBankRdBursts::11            1                       # Per bank write bursts (Count)
system.mem_ctrls1.dram.perBankRdBursts::12            0                       # Per bank write bursts (Count)
system.mem_ctrls1.dram.perBankRdBursts::13           10                       # Per bank write bursts (Count)
system.mem_ctrls1.dram.perBankRdBursts::14           60                       # Per bank write bursts (Count)
system.mem_ctrls1.dram.perBankRdBursts::15            8                       # Per bank write bursts (Count)
system.mem_ctrls1.dram.perBankWrBursts::0            0                       # Per bank write bursts (Count)
system.mem_ctrls1.dram.perBankWrBursts::1            0                       # Per bank write bursts (Count)
system.mem_ctrls1.dram.perBankWrBursts::2            0                       # Per bank write bursts (Count)
system.mem_ctrls1.dram.perBankWrBursts::3            0                       # Per bank write bursts (Count)
system.mem_ctrls1.dram.perBankWrBursts::4            0                       # Per bank write bursts (Count)
system.mem_ctrls1.dram.perBankWrBursts::5            0                       # Per bank write bursts (Count)
system.mem_ctrls1.dram.perBankWrBursts::6            0                       # Per bank write bursts (Count)
system.mem_ctrls1.dram.perBankWrBursts::7            0                       # Per bank write bursts (Count)
system.mem_ctrls1.dram.perBankWrBursts::8            0                       # Per bank write bursts (Count)
system.mem_ctrls1.dram.perBankWrBursts::9            0                       # Per bank write bursts (Count)
system.mem_ctrls1.dram.perBankWrBursts::10            0                       # Per bank write bursts (Count)
system.mem_ctrls1.dram.perBankWrBursts::11            0                       # Per bank write bursts (Count)
system.mem_ctrls1.dram.perBankWrBursts::12            0                       # Per bank write bursts (Count)
system.mem_ctrls1.dram.perBankWrBursts::13            0                       # Per bank write bursts (Count)
system.mem_ctrls1.dram.perBankWrBursts::14            0                       # Per bank write bursts (Count)
system.mem_ctrls1.dram.perBankWrBursts::15            0                       # Per bank write bursts (Count)
system.mem_ctrls1.dram.totQLat                1311000                       # Total ticks spent queuing (Tick)
system.mem_ctrls1.dram.totBusLat               865000                       # Total ticks spent in databus transfers (Tick)
system.mem_ctrls1.dram.totMemAccLat           4554750                       # Total ticks spent from burst creation until serviced by the DRAM (Tick)
system.mem_ctrls1.dram.avgQLat                7578.03                       # Average queueing delay per DRAM burst ((Tick/Count))
system.mem_ctrls1.dram.avgBusLat              5000.00                       # Average bus latency per DRAM burst ((Tick/Count))
system.mem_ctrls1.dram.avgMemAccLat          26328.03                       # Average memory access latency per DRAM burst ((Tick/Count))
system.mem_ctrls1.dram.readRowHits                131                       # Number of row buffer hits during reads (Count)
system.mem_ctrls1.dram.writeRowHits                 0                       # Number of row buffer hits during writes (Count)
system.mem_ctrls1.dram.readRowHitRate           75.72                       # Row buffer hit rate for reads (Ratio)
system.mem_ctrls1.dram.writeRowHitRate            nan                       # Row buffer hit rate for writes (Ratio)
system.mem_ctrls1.dram.bytesPerActivate::samples           34                       # Bytes accessed per row activation (Byte)
system.mem_ctrls1.dram.bytesPerActivate::mean   254.117647                       # Bytes accessed per row activation (Byte)
system.mem_ctrls1.dram.bytesPerActivate::gmean   169.717726                       # Bytes accessed per row activation (Byte)
system.mem_ctrls1.dram.bytesPerActivate::stdev   259.125308                       # Bytes accessed per row activation (Byte)
system.mem_ctrls1.dram.bytesPerActivate::0-127           11     32.35%     32.35% # Bytes accessed per row activation (Byte)
system.mem_ctrls1.dram.bytesPerActivate::128-255           12     35.29%     67.65% # Bytes accessed per row activation (Byte)
system.mem_ctrls1.dram.bytesPerActivate::256-383            3      8.82%     76.47% # Bytes accessed per row activation (Byte)
system.mem_ctrls1.dram.bytesPerActivate::384-511            3      8.82%     85.29% # Bytes accessed per row activation (Byte)
system.mem_ctrls1.dram.bytesPerActivate::512-639            1      2.94%     88.24% # Bytes accessed per row activation (Byte)
system.mem_ctrls1.dram.bytesPerActivate::640-767            1      2.94%     91.18% # Bytes accessed per row activation (Byte)
system.mem_ctrls1.dram.bytesPerActivate::768-895            1      2.94%     94.12% # Bytes accessed per row activation (Byte)
system.mem_ctrls1.dram.bytesPerActivate::896-1023            1      2.94%     97.06% # Bytes accessed per row activation (Byte)
system.mem_ctrls1.dram.bytesPerActivate::1024-1151            1      2.94%    100.00% # Bytes accessed per row activation (Byte)
system.mem_ctrls1.dram.bytesPerActivate::total           34                       # Bytes accessed per row activation (Byte)
system.mem_ctrls1.dram.bytesRead                11072                       # Total bytes read (Byte)
system.mem_ctrls1.dram.bytesWritten                 0                       # Total bytes written (Byte)
system.mem_ctrls1.dram.avgRdBW             315.057871                       # Average DRAM read bandwidth in MiBytes/s ((Byte/Second))
system.mem_ctrls1.dram.avgWrBW                      0                       # Average DRAM write bandwidth in MiBytes/s ((Byte/Second))
system.mem_ctrls1.dram.peakBW                12800.00                       # Theoretical peak bandwidth in MiByte/s ((Byte/Second))
system.mem_ctrls1.dram.busUtil                   2.46                       # Data bus utilization in percentage (Ratio)
system.mem_ctrls1.dram.busUtilRead               2.46                       # Data bus utilization in percentage for reads (Ratio)
system.mem_ctrls1.dram.busUtilWrite              0.00                       # Data bus utilization in percentage for writes (Ratio)
system.mem_ctrls1.dram.pageHitRate              75.72                       # Row buffer hit rate, read and write combined (Ratio)
system.mem_ctrls1.dram.power_state.pwrStateResidencyTicks::UNDEFINED     35142750                       # Cumulative time (in ticks) in various power states (Tick)
system.mem_ctrls1.dram.rank0.actEnergy         142800                       # Energy for activate commands per rank (pJ) (Joule)
system.mem_ctrls1.dram.rank0.preEnergy          53130                       # Energy for precharge commands per rank (pJ) (Joule)
system.mem_ctrls1.dram.rank0.readEnergy        606900                       # Energy for read commands per rank (pJ) (Joule)
system.mem_ctrls1.dram.rank0.writeEnergy            0                       # Energy for write commands per rank (pJ) (Joule)
system.mem_ctrls1.dram.rank0.refreshEnergy 2458560.000000                       # Energy for refresh commands per rank (pJ) (Joule)
system.mem_ctrls1.dram.rank0.actBackEnergy      8765460                       # Energy for active background per rank (pJ) (Joule)
system.mem_ctrls1.dram.rank0.preBackEnergy      6113280                       # Energy for precharge background per rank (pJ) (Joule)
system.mem_ctrls1.dram.rank0.actPowerDownEnergy            0                       # Energy for active power-down per rank (pJ) (Joule)
system.mem_ctrls1.dram.rank0.prePowerDownEnergy            0                       # Energy for precharge power-down per rank (pJ) (Joule)
system.mem_ctrls1.dram.rank0.selfRefreshEnergy            0                       # Energy for self refresh per rank (pJ) (Joule)
system.mem_ctrls1.dram.rank0.totalEnergy     18140130                       # Total energy per rank (pJ) (Joule)
system.mem_ctrls1.dram.rank0.averagePower   516.184135                       # Core power per rank (mW) (Watt)
system.mem_ctrls1.dram.rank0.totalIdleTime            0                       # Total Idle time Per DRAM Rank (Tick)
system.mem_ctrls1.dram.rank0.pwrStateTime::IDLE     15822500                       # Time in different power states (Tick)
system.mem_ctrls1.dram.rank0.pwrStateTime::REF      1040000                       # Time in different power states (Tick)
system.mem_ctrls1.dram.rank0.pwrStateTime::SREF            0                       # Time in different power states (Tick)
system.mem_ctrls1.dram.rank0.pwrStateTime::PRE_PDN            0                       # Time in different power states (Tick)
system.mem_ctrls1.dram.rank0.pwrStateTime::ACT     18280250                       # Time in different power states (Tick)
system.mem_ctrls1.dram.rank0.pwrStateTime::ACT_PDN            0                       # Time in different power states (Tick)
system.mem_ctrls1.dram.rank1.actEnergy         157080                       # Energy for activate commands per rank (pJ) (Joule)
system.mem_ctrls1.dram.rank1.preEnergy          75900                       # Energy for precharge commands per rank (pJ) (Joule)
system.mem_ctrls1.dram.rank1.readEnergy        628320                       # Energy for read commands per rank (pJ) (Joule)
system.mem_ctrls1.dram.rank1.writeEnergy            0                       # Energy for write commands per rank (pJ) (Joule)
system.mem_ctrls1.dram.rank1.refreshEnergy 2458560.000000                       # Energy for refresh commands per rank (pJ) (Joule)
system.mem_ctrls1.dram.rank1.actBackEnergy      8780280                       # Energy for active background per rank (pJ) (Joule)
system.mem_ctrls1.dram.rank1.preBackEnergy      6100800                       # Energy for precharge background per rank (pJ) (Joule)
system.mem_ctrls1.dram.rank1.actPowerDownEnergy            0                       # Energy for active power-down per rank (pJ) (Joule)
system.mem_ctrls1.dram.rank1.prePowerDownEnergy            0                       # Energy for precharge power-down per rank (pJ) (Joule)
system.mem_ctrls1.dram.rank1.selfRefreshEnergy            0                       # Energy for self refresh per rank (pJ) (Joule)
system.mem_ctrls1.dram.rank1.totalEnergy     18200940                       # Total energy per rank (pJ) (Joule)
system.mem_ctrls1.dram.rank1.averagePower   517.914506                       # Core power per rank (mW) (Watt)
system.mem_ctrls1.dram.rank1.totalIdleTime            0                       # Total Idle time Per DRAM Rank (Tick)
system.mem_ctrls1.dram.rank1.pwrStateTime::IDLE     15778000                       # Time in different power states (Tick)
system.mem_ctrls1.dram.rank1.pwrStateTime::REF      1040000                       # Time in different power states (Tick)
system.mem_ctrls1.dram.rank1.pwrStateTime::SREF            0                       # Time in different power states (Tick)
system.mem_ctrls1.dram.rank1.pwrStateTime::PRE_PDN            0                       # Time in different power states (Tick)
system.mem_ctrls1.dram.rank1.pwrStateTime::ACT     18324750                       # Time in different power states (Tick)
system.mem_ctrls1.dram.rank1.pwrStateTime::ACT_PDN            0                       # Time in different power states (Tick)
system.mem_ctrls1.power_state.pwrStateResidencyTicks::UNDEFINED     35142750                       # Cumulative time (in ticks) in various power states (Tick)
system.membus.transDist::ReadResp                 320                       # Transaction distribution (Count)
system.membus.transDist::ReadExReq                 29                       # Transaction distribution (Count)
system.membus.transDist::ReadExResp                29                       # Transaction distribution (Count)
system.membus.transDist::ReadSharedReq            320                       # Transaction distribution (Count)
system.membus.pktCount_system.cpu_cluster.l2.mem_side_port::system.mem_ctrls0.port          352                       # Packet count per connected requestor and responder (Count)
system.membus.pktCount_system.cpu_cluster.l2.mem_side_port::system.mem_ctrls1.port          346                       # Packet count per connected requestor and responder (Count)
system.membus.pktCount_system.cpu_cluster.l2.mem_side_port::total          698                       # Packet count per connected requestor and responder (Count)
system.membus.pktCount::total                     698                       # Packet count per connected requestor and responder (Count)
system.membus.pktSize_system.cpu_cluster.l2.mem_side_port::system.mem_ctrls0.port        11264                       # Cumulative packet size per connected requestor and responder (Byte)
system.membus.pktSize_system.cpu_cluster.l2.mem_side_port::system.mem_ctrls1.port        11072                       # Cumulative packet size per connected requestor and responder (Byte)
system.membus.pktSize_system.cpu_cluster.l2.mem_side_port::total        22336                       # Cumulative packet size per connected requestor and responder (Byte)
system.membus.pktSize::total                    22336                       # Cumulative packet size per connected requestor and responder (Byte)
system.membus.snoops                                0                       # Total snoops (Count)
system.membus.snoopTraffic                          0                       # Total snoop traffic (Byte)
system.membus.snoopFanout::samples                349                       # Request fanout histogram (Count)
system.membus.snoopFanout::mean                     0                       # Request fanout histogram (Count)
system.membus.snoopFanout::stdev                    0                       # Request fanout histogram (Count)
system.membus.snoopFanout::underflows               0      0.00%      0.00% # Request fanout histogram (Count)
system.membus.snoopFanout::0                      349    100.00%    100.00% # Request fanout histogram (Count)
system.membus.snoopFanout::1                        0      0.00%    100.00% # Request fanout histogram (Count)
system.membus.snoopFanout::overflows                0      0.00%    100.00% # Request fanout histogram (Count)
system.membus.snoopFanout::min_value                0                       # Request fanout histogram (Count)
system.membus.snoopFanout::max_value                0                       # Request fanout histogram (Count)
system.membus.snoopFanout::total                  349                       # Request fanout histogram (Count)
system.membus.power_state.pwrStateResidencyTicks::UNDEFINED     35142750                       # Cumulative time (in ticks) in various power states (Tick)
system.membus.reqLayer0.occupancy              205250                       # Layer occupancy (ticks) (Tick)
system.membus.reqLayer0.utilization               0.0                       # Layer utilization (Ratio)
system.membus.reqLayer1.occupancy              210250                       # Layer occupancy (ticks) (Tick)
system.membus.reqLayer1.utilization               0.0                       # Layer utilization (Ratio)
system.membus.respLayer1.occupancy            1853750                       # Layer occupancy (ticks) (Tick)
system.membus.respLayer1.utilization              0.1                       # Layer utilization (Ratio)
system.membus.snoop_filter.totRequests            349                       # Total number of requests made to the snoop filter. (Count)
system.membus.snoop_filter.hitSingleRequests            0                       # Number of requests hitting in the snoop filter with a single holder of the requested data. (Count)
system.membus.snoop_filter.hitMultiRequests            0                       # Number of requests hitting in the snoop filter with multiple (>1) holders of the requested data. (Count)
system.membus.snoop_filter.totSnoops                0                       # Total number of snoops made to the snoop filter. (Count)
system.membus.snoop_filter.hitSingleSnoops            0                       # Number of snoops hitting in the snoop filter with a single holder of the requested data. (Count)
system.membus.snoop_filter.hitMultiSnoops            0                       # Number of snoops hitting in the snoop filter with multiple (>1) holders of the requested data. (Count)
system.voltage_domain.voltage                3.300000                       # Voltage in Volts (Volt)
system.workload.inst.arm                            0                       # number of arm instructions executed (Count)
system.workload.inst.quiesce                        0                       # number of quiesce instructions executed (Count)
system.cpu_cluster.cpus.idleCycles              71365                       # Total number of cycles that the object has spent stopped (Unspecified)
system.cpu_cluster.cpus.tickCycles              69206                       # Number of cycles that the object actually ticked (Unspecified)

---------- End Simulation Statistics   ----------
