
---------- Begin Simulation Statistics ----------
simSeconds                                   0.000049                       # Number of seconds simulated (Second)
simTicks                                     49310000                       # Number of ticks simulated (Tick)
finalTick                                    49310000                       # Number of ticks from beginning of simulation (restored from checkpoints and never reset) (Tick)
simFreq                                  1000000000000                       # The number of ticks per simulated second ((Tick/Second))
hostSeconds                                      0.17                       # Real time elapsed on the host (Second)
hostTickRate                                289504589                       # The number of ticks simulated per host second (ticks/s) ((Tick/Second))
hostMemory                                     678308                       # Number of bytes of host memory used (Byte)
simInsts                                        19815                       # Number of instructions simulated (Count)
simOps                                          39457                       # Number of ops (including micro ops) simulated (Count)
hostInstRate                                   116275                       # Simulator instruction rate (inst/s) ((Count/Second))
hostOpRate                                     231525                       # Simulator op (including micro ops) rate (op/s) ((Count/Second))
system.clk_domain.clock                          1000                       # Clock period in ticks (Tick)
system.cpu.numCycles                            98621                       # Number of cpu cycles simulated (Cycle)
system.cpu.numWorkItemsStarted                      0                       # Number of work items this cpu started (Count)
system.cpu.numWorkItemsCompleted                    0                       # Number of work items this cpu completed (Count)
system.cpu.instsAdded                           71161                       # Number of instructions added to the IQ (excludes non-spec) (Count)
system.cpu.nonSpecInstsAdded                        1                       # Number of non-speculative instructions added to the IQ (Count)
system.cpu.instsIssued                          62074                       # Number of instructions issued (Count)
system.cpu.squashedInstsIssued                    194                       # Number of squashed instructions issued (Count)
system.cpu.squashedInstsExamined                31699                       # Number of squashed instructions iterated over during squash; mainly for profiling (Count)
system.cpu.squashedOperandsExamined             41533                       # Number of squashed operands that are examined and possibly removed from graph (Count)
system.cpu.squashedNonSpecRemoved                   1                       # Number of squashed non-spec instructions that were removed (Count)
system.cpu.numIssuedDist::samples               65826                       # Number of insts issued each cycle (Count)
system.cpu.numIssuedDist::mean               0.943001                       # Number of insts issued each cycle (Count)
system.cpu.numIssuedDist::stdev              1.883723                       # Number of insts issued each cycle (Count)
system.cpu.numIssuedDist::underflows                0      0.00%      0.00% # Number of insts issued each cycle (Count)
system.cpu.numIssuedDist::0                     48076     73.03%     73.03% # Number of insts issued each cycle (Count)
system.cpu.numIssuedDist::1                      4027      6.12%     79.15% # Number of insts issued each cycle (Count)
system.cpu.numIssuedDist::2                      2885      4.38%     83.54% # Number of insts issued each cycle (Count)
system.cpu.numIssuedDist::3                      2638      4.01%     87.54% # Number of insts issued each cycle (Count)
system.cpu.numIssuedDist::4                      2469      3.75%     91.29% # Number of insts issued each cycle (Count)
system.cpu.numIssuedDist::5                      2169      3.30%     94.59% # Number of insts issued each cycle (Count)
system.cpu.numIssuedDist::6                      1957      2.97%     97.56% # Number of insts issued each cycle (Count)
system.cpu.numIssuedDist::7                       940      1.43%     98.99% # Number of insts issued each cycle (Count)
system.cpu.numIssuedDist::8                       665      1.01%    100.00% # Number of insts issued each cycle (Count)
system.cpu.numIssuedDist::overflows                 0      0.00%    100.00% # Number of insts issued each cycle (Count)
system.cpu.numIssuedDist::min_value                 0                       # Number of insts issued each cycle (Count)
system.cpu.numIssuedDist::max_value                 8                       # Number of insts issued each cycle (Count)
system.cpu.numIssuedDist::total                 65826                       # Number of insts issued each cycle (Count)
system.cpu.statFuBusy::No_OpClass                   0      0.00%      0.00% # attempts to use FU when none available (Count)
system.cpu.statFuBusy::IntAlu                     695     81.29%     81.29% # attempts to use FU when none available (Count)
system.cpu.statFuBusy::IntMult                      0      0.00%     81.29% # attempts to use FU when none available (Count)
system.cpu.statFuBusy::IntDiv                       0      0.00%     81.29% # attempts to use FU when none available (Count)
system.cpu.statFuBusy::FloatAdd                     0      0.00%     81.29% # attempts to use FU when none available (Count)
system.cpu.statFuBusy::FloatCmp                     0      0.00%     81.29% # attempts to use FU when none available (Count)
system.cpu.statFuBusy::FloatCvt                     0      0.00%     81.29% # attempts to use FU when none available (Count)
system.cpu.statFuBusy::FloatMult                    0      0.00%     81.29% # attempts to use FU when none available (Count)
system.cpu.statFuBusy::FloatMultAcc                 0      0.00%     81.29% # attempts to use FU when none available (Count)
system.cpu.statFuBusy::FloatDiv                     0      0.00%     81.29% # attempts to use FU when none available (Count)
system.cpu.statFuBusy::FloatMisc                    0      0.00%     81.29% # attempts to use FU when none available (Count)
system.cpu.statFuBusy::FloatSqrt                    0      0.00%     81.29% # attempts to use FU when none available (Count)
system.cpu.statFuBusy::SimdAdd                      0      0.00%     81.29% # attempts to use FU when none available (Count)
system.cpu.statFuBusy::SimdAddAcc                   0      0.00%     81.29% # attempts to use FU when none available (Count)
system.cpu.statFuBusy::SimdAlu                     17      1.99%     83.27% # attempts to use FU when none available (Count)
system.cpu.statFuBusy::SimdCmp                      0      0.00%     83.27% # attempts to use FU when none available (Count)
system.cpu.statFuBusy::SimdCvt                      0      0.00%     83.27% # attempts to use FU when none available (Count)
system.cpu.statFuBusy::SimdMisc                     2      0.23%     83.51% # attempts to use FU when none available (Count)
system.cpu.statFuBusy::SimdMult                     0      0.00%     83.51% # attempts to use FU when none available (Count)
system.cpu.statFuBusy::SimdMultAcc                  0      0.00%     83.51% # attempts to use FU when none available (Count)
system.cpu.statFuBusy::SimdShift                    2      0.23%     83.74% # attempts to use FU when none available (Count)
system.cpu.statFuBusy::SimdShiftAcc                 0      0.00%     83.74% # attempts to use FU when none available (Count)
system.cpu.statFuBusy::SimdDiv                      0      0.00%     83.74% # attempts to use FU when none available (Count)
system.cpu.statFuBusy::SimdSqrt                     0      0.00%     83.74% # attempts to use FU when none available (Count)
system.cpu.statFuBusy::SimdFloatAdd                 0      0.00%     83.74% # attempts to use FU when none available (Count)
system.cpu.statFuBusy::SimdFloatAlu                 0      0.00%     83.74% # attempts to use FU when none available (Count)
system.cpu.statFuBusy::SimdFloatCmp                 0      0.00%     83.74% # attempts to use FU when none available (Count)
system.cpu.statFuBusy::SimdFloatCvt                 0      0.00%     83.74% # attempts to use FU when none available (Count)
system.cpu.statFuBusy::SimdFloatDiv                 0      0.00%     83.74% # attempts to use FU when none available (Count)
system.cpu.statFuBusy::SimdFloatMisc                0      0.00%     83.74% # attempts to use FU when none available (Count)
system.cpu.statFuBusy::SimdFloatMult                0      0.00%     83.74% # attempts to use FU when none available (Count)
system.cpu.statFuBusy::SimdFloatMultAcc             0      0.00%     83.74% # attempts to use FU when none available (Count)
system.cpu.statFuBusy::SimdFloatSqrt                0      0.00%     83.74% # attempts to use FU when none available (Count)
system.cpu.statFuBusy::SimdReduceAdd                0      0.00%     83.74% # attempts to use FU when none available (Count)
system.cpu.statFuBusy::SimdReduceAlu                0      0.00%     83.74% # attempts to use FU when none available (Count)
system.cpu.statFuBusy::SimdReduceCmp                0      0.00%     83.74% # attempts to use FU when none available (Count)
system.cpu.statFuBusy::SimdFloatReduceAdd            0      0.00%     83.74% # attempts to use FU when none available (Count)
system.cpu.statFuBusy::SimdFloatReduceCmp            0      0.00%     83.74% # attempts to use FU when none available (Count)
system.cpu.statFuBusy::SimdAes                      0      0.00%     83.74% # attempts to use FU when none available (Count)
system.cpu.statFuBusy::SimdAesMix                   0      0.00%     83.74% # attempts to use FU when none available (Count)
system.cpu.statFuBusy::SimdSha1Hash                 0      0.00%     83.74% # attempts to use FU when none available (Count)
system.cpu.statFuBusy::SimdSha1Hash2                0      0.00%     83.74% # attempts to use FU when none available (Count)
system.cpu.statFuBusy::SimdSha256Hash               0      0.00%     83.74% # attempts to use FU when none available (Count)
system.cpu.statFuBusy::SimdSha256Hash2              0      0.00%     83.74% # attempts to use FU when none available (Count)
system.cpu.statFuBusy::SimdShaSigma2                0      0.00%     83.74% # attempts to use FU when none available (Count)
system.cpu.statFuBusy::SimdShaSigma3                0      0.00%     83.74% # attempts to use FU when none available (Count)
system.cpu.statFuBusy::SimdPredAlu                  0      0.00%     83.74% # attempts to use FU when none available (Count)
system.cpu.statFuBusy::MemRead                     86     10.06%     93.80% # attempts to use FU when none available (Count)
system.cpu.statFuBusy::MemWrite                    26      3.04%     96.84% # attempts to use FU when none available (Count)
system.cpu.statFuBusy::FloatMemRead                 7      0.82%     97.66% # attempts to use FU when none available (Count)
system.cpu.statFuBusy::FloatMemWrite               20      2.34%    100.00% # attempts to use FU when none available (Count)
system.cpu.statFuBusy::IprAccess                    0      0.00%    100.00% # attempts to use FU when none available (Count)
system.cpu.statFuBusy::InstPrefetch                 0      0.00%    100.00% # attempts to use FU when none available (Count)
system.cpu.statIssuedInstType_0::No_OpClass          938      1.51%      1.51% # Number of instructions issued per FU type, per thread (Count)
system.cpu.statIssuedInstType_0::IntAlu         46805     75.40%     76.91% # Number of instructions issued per FU type, per thread (Count)
system.cpu.statIssuedInstType_0::IntMult           18      0.03%     76.94% # Number of instructions issued per FU type, per thread (Count)
system.cpu.statIssuedInstType_0::IntDiv            46      0.07%     77.02% # Number of instructions issued per FU type, per thread (Count)
system.cpu.statIssuedInstType_0::FloatAdd          172      0.28%     77.29% # Number of instructions issued per FU type, per thread (Count)
system.cpu.statIssuedInstType_0::FloatCmp            0      0.00%     77.29% # Number of instructions issued per FU type, per thread (Count)
system.cpu.statIssuedInstType_0::FloatCvt            0      0.00%     77.29% # Number of instructions issued per FU type, per thread (Count)
system.cpu.statIssuedInstType_0::FloatMult            0      0.00%     77.29% # Number of instructions issued per FU type, per thread (Count)
system.cpu.statIssuedInstType_0::FloatMultAcc            0      0.00%     77.29% # Number of instructions issued per FU type, per thread (Count)
system.cpu.statIssuedInstType_0::FloatDiv            0      0.00%     77.29% # Number of instructions issued per FU type, per thread (Count)
system.cpu.statIssuedInstType_0::FloatMisc            0      0.00%     77.29% # Number of instructions issued per FU type, per thread (Count)
system.cpu.statIssuedInstType_0::FloatSqrt            0      0.00%     77.29% # Number of instructions issued per FU type, per thread (Count)
system.cpu.statIssuedInstType_0::SimdAdd          216      0.35%     77.64% # Number of instructions issued per FU type, per thread (Count)
system.cpu.statIssuedInstType_0::SimdAddAcc            0      0.00%     77.64% # Number of instructions issued per FU type, per thread (Count)
system.cpu.statIssuedInstType_0::SimdAlu          677      1.09%     78.73% # Number of instructions issued per FU type, per thread (Count)
system.cpu.statIssuedInstType_0::SimdCmp            0      0.00%     78.73% # Number of instructions issued per FU type, per thread (Count)
system.cpu.statIssuedInstType_0::SimdCvt          682      1.10%     79.83% # Number of instructions issued per FU type, per thread (Count)
system.cpu.statIssuedInstType_0::SimdMisc          591      0.95%     80.78% # Number of instructions issued per FU type, per thread (Count)
system.cpu.statIssuedInstType_0::SimdMult            0      0.00%     80.78% # Number of instructions issued per FU type, per thread (Count)
system.cpu.statIssuedInstType_0::SimdMultAcc            0      0.00%     80.78% # Number of instructions issued per FU type, per thread (Count)
system.cpu.statIssuedInstType_0::SimdShift          190      0.31%     81.09% # Number of instructions issued per FU type, per thread (Count)
system.cpu.statIssuedInstType_0::SimdShiftAcc            0      0.00%     81.09% # Number of instructions issued per FU type, per thread (Count)
system.cpu.statIssuedInstType_0::SimdDiv            0      0.00%     81.09% # Number of instructions issued per FU type, per thread (Count)
system.cpu.statIssuedInstType_0::SimdSqrt            0      0.00%     81.09% # Number of instructions issued per FU type, per thread (Count)
system.cpu.statIssuedInstType_0::SimdFloatAdd            0      0.00%     81.09% # Number of instructions issued per FU type, per thread (Count)
system.cpu.statIssuedInstType_0::SimdFloatAlu            0      0.00%     81.09% # Number of instructions issued per FU type, per thread (Count)
system.cpu.statIssuedInstType_0::SimdFloatCmp            0      0.00%     81.09% # Number of instructions issued per FU type, per thread (Count)
system.cpu.statIssuedInstType_0::SimdFloatCvt            0      0.00%     81.09% # Number of instructions issued per FU type, per thread (Count)
system.cpu.statIssuedInstType_0::SimdFloatDiv            0      0.00%     81.09% # Number of instructions issued per FU type, per thread (Count)
system.cpu.statIssuedInstType_0::SimdFloatMisc            0      0.00%     81.09% # Number of instructions issued per FU type, per thread (Count)
system.cpu.statIssuedInstType_0::SimdFloatMult            0      0.00%     81.09% # Number of instructions issued per FU type, per thread (Count)
system.cpu.statIssuedInstType_0::SimdFloatMultAcc            0      0.00%     81.09% # Number of instructions issued per FU type, per thread (Count)
system.cpu.statIssuedInstType_0::SimdFloatSqrt            0      0.00%     81.09% # Number of instructions issued per FU type, per thread (Count)
system.cpu.statIssuedInstType_0::SimdReduceAdd            0      0.00%     81.09% # Number of instructions issued per FU type, per thread (Count)
system.cpu.statIssuedInstType_0::SimdReduceAlu            0      0.00%     81.09% # Number of instructions issued per FU type, per thread (Count)
system.cpu.statIssuedInstType_0::SimdReduceCmp            0      0.00%     81.09% # Number of instructions issued per FU type, per thread (Count)
system.cpu.statIssuedInstType_0::SimdFloatReduceAdd            0      0.00%     81.09% # Number of instructions issued per FU type, per thread (Count)
system.cpu.statIssuedInstType_0::SimdFloatReduceCmp            0      0.00%     81.09% # Number of instructions issued per FU type, per thread (Count)
system.cpu.statIssuedInstType_0::SimdAes            0      0.00%     81.09% # Number of instructions issued per FU type, per thread (Count)
system.cpu.statIssuedInstType_0::SimdAesMix            0      0.00%     81.09% # Number of instructions issued per FU type, per thread (Count)
system.cpu.statIssuedInstType_0::SimdSha1Hash            0      0.00%     81.09% # Number of instructions issued per FU type, per thread (Count)
system.cpu.statIssuedInstType_0::SimdSha1Hash2            0      0.00%     81.09% # Number of instructions issued per FU type, per thread (Count)
system.cpu.statIssuedInstType_0::SimdSha256Hash            0      0.00%     81.09% # Number of instructions issued per FU type, per thread (Count)
system.cpu.statIssuedInstType_0::SimdSha256Hash2            0      0.00%     81.09% # Number of instructions issued per FU type, per thread (Count)
system.cpu.statIssuedInstType_0::SimdShaSigma2            0      0.00%     81.09% # Number of instructions issued per FU type, per thread (Count)
system.cpu.statIssuedInstType_0::SimdShaSigma3            0      0.00%     81.09% # Number of instructions issued per FU type, per thread (Count)
system.cpu.statIssuedInstType_0::SimdPredAlu            0      0.00%     81.09% # Number of instructions issued per FU type, per thread (Count)
system.cpu.statIssuedInstType_0::MemRead         6846     11.03%     92.12% # Number of instructions issued per FU type, per thread (Count)
system.cpu.statIssuedInstType_0::MemWrite         3298      5.31%     97.43% # Number of instructions issued per FU type, per thread (Count)
system.cpu.statIssuedInstType_0::FloatMemRead         1095      1.76%     99.19% # Number of instructions issued per FU type, per thread (Count)
system.cpu.statIssuedInstType_0::FloatMemWrite          500      0.81%    100.00% # Number of instructions issued per FU type, per thread (Count)
system.cpu.statIssuedInstType_0::IprAccess            0      0.00%    100.00% # Number of instructions issued per FU type, per thread (Count)
system.cpu.statIssuedInstType_0::InstPrefetch            0      0.00%    100.00% # Number of instructions issued per FU type, per thread (Count)
system.cpu.statIssuedInstType_0::total          62074                       # Number of instructions issued per FU type, per thread (Count)
system.cpu.issueRate                         0.629420                       # Inst issue rate ((Count/Cycle))
system.cpu.fuBusy                                 855                       # FU busy when requested (Count)
system.cpu.fuBusyRate                        0.013774                       # FU busy rate (busy events/executed inst) ((Count/Count))
system.cpu.intInstQueueReads                   182462                       # Number of integer instruction queue reads (Count)
system.cpu.intInstQueueWrites                   94585                       # Number of integer instruction queue writes (Count)
system.cpu.intInstQueueWakeupAccesses           55174                       # Number of integer instruction queue wakeup accesses (Count)
system.cpu.fpInstQueueReads                      8561                       # Number of floating instruction queue reads (Count)
system.cpu.fpInstQueueWrites                     8318                       # Number of floating instruction queue writes (Count)
system.cpu.fpInstQueueWakeupAccesses             3900                       # Number of floating instruction queue wakeup accesses (Count)
system.cpu.vecInstQueueReads                        0                       # Number of vector instruction queue reads (Count)
system.cpu.vecInstQueueWrites                       0                       # Number of vector instruction queue writes (Count)
system.cpu.vecInstQueueWakeupAccesses               0                       # Number of vector instruction queue wakeup accesses (Count)
system.cpu.intAluAccesses                       57695                       # Number of integer alu accesses (Count)
system.cpu.fpAluAccesses                         4296                       # Number of floating point alu accesses (Count)
system.cpu.vecAluAccesses                           0                       # Number of vector alu accesses (Count)
system.cpu.numInsts                             60476                       # Number of executed instructions (Count)
system.cpu.numLoadInsts                          7625                       # Number of load instructions executed (Count)
system.cpu.numSquashedInsts                      1598                       # Number of squashed instructions skipped in execute (Count)
system.cpu.numSwp                                   0                       # Number of swp insts executed (Count)
system.cpu.numNop                                   0                       # Number of nop insts executed (Count)
system.cpu.numRefs                              11282                       # Number of memory reference insts executed (Count)
system.cpu.numBranches                           5991                       # Number of branches executed (Count)
system.cpu.numStoreInsts                         3657                       # Number of stores executed (Count)
system.cpu.numRate                           0.613216                       # Inst execution rate ((Count/Cycle))
system.cpu.timesIdled                             418                       # Number of times that the entire CPU went into an idle state and unscheduled itself (Count)
system.cpu.idleCycles                           32795                       # Total number of cycles that the CPU has spent unscheduled due to idling (Cycle)
system.cpu.committedInsts                       19815                       # Number of Instructions Simulated (Count)
system.cpu.committedOps                         39457                       # Number of Ops (including micro ops) Simulated (Count)
system.cpu.cpi                               4.977088                       # CPI: Cycles Per Instruction ((Cycle/Count))
system.cpu.totalCpi                          4.977088                       # CPI: Total CPI of All Threads ((Cycle/Count))
system.cpu.ipc                               0.200921                       # IPC: Instructions Per Cycle ((Count/Cycle))
system.cpu.totalIpc                          0.200921                       # IPC: Total IPC of All Threads ((Count/Cycle))
system.cpu.intRegfileReads                      80674                       # Number of integer regfile reads (Count)
system.cpu.intRegfileWrites                     45751                       # Number of integer regfile writes (Count)
system.cpu.fpRegfileReads                        5957                       # Number of floating regfile reads (Count)
system.cpu.fpRegfileWrites                       3160                       # Number of floating regfile writes (Count)
system.cpu.ccRegfileReads                       32397                       # number of cc regfile reads (Count)
system.cpu.ccRegfileWrites                      19135                       # number of cc regfile writes (Count)
system.cpu.miscRegfileReads                     24414                       # number of misc regfile reads (Count)
system.cpu.MemDepUnit__0.insertedLoads           8369                       # Number of loads inserted to the mem dependence unit. (Count)
system.cpu.MemDepUnit__0.insertedStores          4337                       # Number of stores inserted to the mem dependence unit. (Count)
system.cpu.MemDepUnit__0.conflictingLoads           56                       # Number of conflicting loads. (Count)
system.cpu.MemDepUnit__0.conflictingStores           26                       # Number of conflicting stores. (Count)
system.cpu.MemDepUnit__1.insertedLoads              0                       # Number of loads inserted to the mem dependence unit. (Count)
system.cpu.MemDepUnit__1.insertedStores             0                       # Number of stores inserted to the mem dependence unit. (Count)
system.cpu.MemDepUnit__1.conflictingLoads            0                       # Number of conflicting loads. (Count)
system.cpu.MemDepUnit__1.conflictingStores            0                       # Number of conflicting stores. (Count)
system.cpu.MemDepUnit__2.insertedLoads              0                       # Number of loads inserted to the mem dependence unit. (Count)
system.cpu.MemDepUnit__2.insertedStores             0                       # Number of stores inserted to the mem dependence unit. (Count)
system.cpu.MemDepUnit__2.conflictingLoads            0                       # Number of conflicting loads. (Count)
system.cpu.MemDepUnit__2.conflictingStores            0                       # Number of conflicting stores. (Count)
system.cpu.MemDepUnit__3.insertedLoads              0                       # Number of loads inserted to the mem dependence unit. (Count)
system.cpu.MemDepUnit__3.insertedStores             0                       # Number of stores inserted to the mem dependence unit. (Count)
system.cpu.MemDepUnit__3.conflictingLoads            0                       # Number of conflicting loads. (Count)
system.cpu.MemDepUnit__3.conflictingStores            0                       # Number of conflicting stores. (Count)
system.cpu.branchPred.lookups                    9993                       # Number of BP lookups (Count)
system.cpu.branchPred.condPredicted              8119                       # Number of conditional branches predicted (Count)
system.cpu.branchPred.condIncorrect              1256                       # Number of conditional branches incorrect (Count)
system.cpu.branchPred.BTBLookups                 4075                       # Number of BTB lookups (Count)
system.cpu.branchPred.BTBHits                    2936                       # Number of BTB hits (Count)
system.cpu.branchPred.BTBHitRatio            0.720491                       # BTB Hit Ratio (Ratio)
system.cpu.branchPred.RASUsed                     524                       # Number of times the RAS was used to get a target. (Count)
system.cpu.branchPred.RASIncorrect                  0                       # Number of incorrect RAS predictions. (Count)
system.cpu.branchPred.indirectLookups             224                       # Number of indirect predictor lookups. (Count)
system.cpu.branchPred.indirectHits                 11                       # Number of indirect target hits. (Count)
system.cpu.branchPred.indirectMisses              213                       # Number of indirect misses. (Count)
system.cpu.branchPred.indirectMispredicted          100                       # Number of mispredicted indirect branches. (Count)
system.cpu.commit.commitSquashedInsts           31136                       # The number of squashed insts skipped by commit (Count)
system.cpu.commit.branchMispredicts               914                       # The number of times a branch was mispredicted (Count)
system.cpu.commit.numCommittedDist::samples        61278                       # Number of insts commited each cycle (Count)
system.cpu.commit.numCommittedDist::mean     0.643902                       # Number of insts commited each cycle (Count)
system.cpu.commit.numCommittedDist::stdev     1.674534                       # Number of insts commited each cycle (Count)
system.cpu.commit.numCommittedDist::underflows            0      0.00%      0.00% # Number of insts commited each cycle (Count)
system.cpu.commit.numCommittedDist::0           49286     80.43%     80.43% # Number of insts commited each cycle (Count)
system.cpu.commit.numCommittedDist::1            3506      5.72%     86.15% # Number of insts commited each cycle (Count)
system.cpu.commit.numCommittedDist::2            2137      3.49%     89.64% # Number of insts commited each cycle (Count)
system.cpu.commit.numCommittedDist::3            2470      4.03%     93.67% # Number of insts commited each cycle (Count)
system.cpu.commit.numCommittedDist::4             994      1.62%     95.29% # Number of insts commited each cycle (Count)
system.cpu.commit.numCommittedDist::5             605      0.99%     96.28% # Number of insts commited each cycle (Count)
system.cpu.commit.numCommittedDist::6             304      0.50%     96.78% # Number of insts commited each cycle (Count)
system.cpu.commit.numCommittedDist::7             366      0.60%     97.37% # Number of insts commited each cycle (Count)
system.cpu.commit.numCommittedDist::8            1610      2.63%    100.00% # Number of insts commited each cycle (Count)
system.cpu.commit.numCommittedDist::overflows            0      0.00%    100.00% # Number of insts commited each cycle (Count)
system.cpu.commit.numCommittedDist::min_value            0                       # Number of insts commited each cycle (Count)
system.cpu.commit.numCommittedDist::max_value            8                       # Number of insts commited each cycle (Count)
system.cpu.commit.numCommittedDist::total        61278                       # Number of insts commited each cycle (Count)
system.cpu.commit.instsCommitted                19815                       # Number of instructions committed (Count)
system.cpu.commit.opsCommitted                  39457                       # Number of ops (including micro ops) committed (Count)
system.cpu.commit.memRefs                        7263                       # Number of memory references committed (Count)
system.cpu.commit.loads                          4394                       # Number of loads committed (Count)
system.cpu.commit.amos                              0                       # Number of atomic instructions committed (Count)
system.cpu.commit.membars                           0                       # Number of memory barriers committed (Count)
system.cpu.commit.branches                       4499                       # Number of branches committed (Count)
system.cpu.commit.vectorInstructions                0                       # Number of committed Vector instructions. (Count)
system.cpu.commit.floating                       2002                       # Number of committed floating point instructions. (Count)
system.cpu.commit.integer                       37555                       # Number of committed integer instructions. (Count)
system.cpu.commit.functionCalls                   250                       # Number of function calls committed. (Count)
system.cpu.commit.committedInstType_0::No_OpClass          426      1.08%      1.08% # Class of committed instruction (Count)
system.cpu.commit.committedInstType_0::IntAlu        30519     77.35%     78.43% # Class of committed instruction (Count)
system.cpu.commit.committedInstType_0::IntMult           14      0.04%     78.46% # Class of committed instruction (Count)
system.cpu.commit.committedInstType_0::IntDiv           41      0.10%     78.57% # Class of committed instruction (Count)
system.cpu.commit.committedInstType_0::FloatAdd           80      0.20%     78.77% # Class of committed instruction (Count)
system.cpu.commit.committedInstType_0::FloatCmp            0      0.00%     78.77% # Class of committed instruction (Count)
system.cpu.commit.committedInstType_0::FloatCvt            0      0.00%     78.77% # Class of committed instruction (Count)
system.cpu.commit.committedInstType_0::FloatMult            0      0.00%     78.77% # Class of committed instruction (Count)
system.cpu.commit.committedInstType_0::FloatMultAcc            0      0.00%     78.77% # Class of committed instruction (Count)
system.cpu.commit.committedInstType_0::FloatDiv            0      0.00%     78.77% # Class of committed instruction (Count)
system.cpu.commit.committedInstType_0::FloatMisc            0      0.00%     78.77% # Class of committed instruction (Count)
system.cpu.commit.committedInstType_0::FloatSqrt            0      0.00%     78.77% # Class of committed instruction (Count)
system.cpu.commit.committedInstType_0::SimdAdd           86      0.22%     78.99% # Class of committed instruction (Count)
system.cpu.commit.committedInstType_0::SimdAddAcc            0      0.00%     78.99% # Class of committed instruction (Count)
system.cpu.commit.committedInstType_0::SimdAlu          311      0.79%     79.78% # Class of committed instruction (Count)
system.cpu.commit.committedInstType_0::SimdCmp            0      0.00%     79.78% # Class of committed instruction (Count)
system.cpu.commit.committedInstType_0::SimdCvt          280      0.71%     80.49% # Class of committed instruction (Count)
system.cpu.commit.committedInstType_0::SimdMisc          350      0.89%     81.37% # Class of committed instruction (Count)
system.cpu.commit.committedInstType_0::SimdMult            0      0.00%     81.37% # Class of committed instruction (Count)
system.cpu.commit.committedInstType_0::SimdMultAcc            0      0.00%     81.37% # Class of committed instruction (Count)
system.cpu.commit.committedInstType_0::SimdShift           87      0.22%     81.59% # Class of committed instruction (Count)
system.cpu.commit.committedInstType_0::SimdShiftAcc            0      0.00%     81.59% # Class of committed instruction (Count)
system.cpu.commit.committedInstType_0::SimdDiv            0      0.00%     81.59% # Class of committed instruction (Count)
system.cpu.commit.committedInstType_0::SimdSqrt            0      0.00%     81.59% # Class of committed instruction (Count)
system.cpu.commit.committedInstType_0::SimdFloatAdd            0      0.00%     81.59% # Class of committed instruction (Count)
system.cpu.commit.committedInstType_0::SimdFloatAlu            0      0.00%     81.59% # Class of committed instruction (Count)
system.cpu.commit.committedInstType_0::SimdFloatCmp            0      0.00%     81.59% # Class of committed instruction (Count)
system.cpu.commit.committedInstType_0::SimdFloatCvt            0      0.00%     81.59% # Class of committed instruction (Count)
system.cpu.commit.committedInstType_0::SimdFloatDiv            0      0.00%     81.59% # Class of committed instruction (Count)
system.cpu.commit.committedInstType_0::SimdFloatMisc            0      0.00%     81.59% # Class of committed instruction (Count)
system.cpu.commit.committedInstType_0::SimdFloatMult            0      0.00%     81.59% # Class of committed instruction (Count)
system.cpu.commit.committedInstType_0::SimdFloatMultAcc            0      0.00%     81.59% # Class of committed instruction (Count)
system.cpu.commit.committedInstType_0::SimdFloatSqrt            0      0.00%     81.59% # Class of committed instruction (Count)
system.cpu.commit.committedInstType_0::SimdReduceAdd            0      0.00%     81.59% # Class of committed instruction (Count)
system.cpu.commit.committedInstType_0::SimdReduceAlu            0      0.00%     81.59% # Class of committed instruction (Count)
system.cpu.commit.committedInstType_0::SimdReduceCmp            0      0.00%     81.59% # Class of committed instruction (Count)
system.cpu.commit.committedInstType_0::SimdFloatReduceAdd            0      0.00%     81.59% # Class of committed instruction (Count)
system.cpu.commit.committedInstType_0::SimdFloatReduceCmp            0      0.00%     81.59% # Class of committed instruction (Count)
system.cpu.commit.committedInstType_0::SimdAes            0      0.00%     81.59% # Class of committed instruction (Count)
system.cpu.commit.committedInstType_0::SimdAesMix            0      0.00%     81.59% # Class of committed instruction (Count)
system.cpu.commit.committedInstType_0::SimdSha1Hash            0      0.00%     81.59% # Class of committed instruction (Count)
system.cpu.commit.committedInstType_0::SimdSha1Hash2            0      0.00%     81.59% # Class of committed instruction (Count)
system.cpu.commit.committedInstType_0::SimdSha256Hash            0      0.00%     81.59% # Class of committed instruction (Count)
system.cpu.commit.committedInstType_0::SimdSha256Hash2            0      0.00%     81.59% # Class of committed instruction (Count)
system.cpu.commit.committedInstType_0::SimdShaSigma2            0      0.00%     81.59% # Class of committed instruction (Count)
system.cpu.commit.committedInstType_0::SimdShaSigma3            0      0.00%     81.59% # Class of committed instruction (Count)
system.cpu.commit.committedInstType_0::SimdPredAlu            0      0.00%     81.59% # Class of committed instruction (Count)
system.cpu.commit.committedInstType_0::MemRead         4066     10.30%     91.90% # Class of committed instruction (Count)
system.cpu.commit.committedInstType_0::MemWrite         2469      6.26%     98.15% # Class of committed instruction (Count)
system.cpu.commit.committedInstType_0::FloatMemRead          328      0.83%     98.99% # Class of committed instruction (Count)
system.cpu.commit.committedInstType_0::FloatMemWrite          400      1.01%    100.00% # Class of committed instruction (Count)
system.cpu.commit.committedInstType_0::IprAccess            0      0.00%    100.00% # Class of committed instruction (Count)
system.cpu.commit.committedInstType_0::InstPrefetch            0      0.00%    100.00% # Class of committed instruction (Count)
system.cpu.commit.committedInstType_0::total        39457                       # Class of committed instruction (Count)
system.cpu.commit.commitEligibleSamples          1610                       # number cycles where commit BW limit reached (Cycle)
system.cpu.dcache.demandHits::cpu.data           8517                       # number of demand (read+write) hits (Count)
system.cpu.dcache.demandHits::total              8517                       # number of demand (read+write) hits (Count)
system.cpu.dcache.overallHits::cpu.data          8517                       # number of overall hits (Count)
system.cpu.dcache.overallHits::total             8517                       # number of overall hits (Count)
system.cpu.dcache.demandMisses::cpu.data         1307                       # number of demand (read+write) misses (Count)
system.cpu.dcache.demandMisses::total            1307                       # number of demand (read+write) misses (Count)
system.cpu.dcache.overallMisses::cpu.data         1307                       # number of overall misses (Count)
system.cpu.dcache.overallMisses::total           1307                       # number of overall misses (Count)
system.cpu.dcache.demandMissLatency::cpu.data     68771499                       # number of demand (read+write) miss ticks (Tick)
system.cpu.dcache.demandMissLatency::total     68771499                       # number of demand (read+write) miss ticks (Tick)
system.cpu.dcache.overallMissLatency::cpu.data     68771499                       # number of overall miss ticks (Tick)
system.cpu.dcache.overallMissLatency::total     68771499                       # number of overall miss ticks (Tick)
system.cpu.dcache.demandAccesses::cpu.data         9824                       # number of demand (read+write) accesses (Count)
system.cpu.dcache.demandAccesses::total          9824                       # number of demand (read+write) accesses (Count)
system.cpu.dcache.overallAccesses::cpu.data         9824                       # number of overall (read+write) accesses (Count)
system.cpu.dcache.overallAccesses::total         9824                       # number of overall (read+write) accesses (Count)
system.cpu.dcache.demandMissRate::cpu.data     0.133042                       # miss rate for demand accesses (Ratio)
system.cpu.dcache.demandMissRate::total      0.133042                       # miss rate for demand accesses (Ratio)
system.cpu.dcache.overallMissRate::cpu.data     0.133042                       # miss rate for overall accesses (Ratio)
system.cpu.dcache.overallMissRate::total     0.133042                       # miss rate for overall accesses (Ratio)
system.cpu.dcache.demandAvgMissLatency::cpu.data 52617.826320                       # average overall miss latency ((Cycle/Count))
system.cpu.dcache.demandAvgMissLatency::total 52617.826320                       # average overall miss latency ((Cycle/Count))
system.cpu.dcache.overallAvgMissLatency::cpu.data 52617.826320                       # average overall miss latency ((Cycle/Count))
system.cpu.dcache.overallAvgMissLatency::total 52617.826320                       # average overall miss latency ((Cycle/Count))
system.cpu.dcache.blockedCycles::no_mshrs         1957                       # number of cycles access was blocked (Cycle)
system.cpu.dcache.blockedCycles::no_targets            0                       # number of cycles access was blocked (Cycle)
system.cpu.dcache.blockedCauses::no_mshrs           55                       # number of times access was blocked (Count)
system.cpu.dcache.blockedCauses::no_targets            0                       # number of times access was blocked (Count)
system.cpu.dcache.avgBlocked::no_mshrs      35.581818                       # average number of cycles each access was blocked ((Cycle/Count))
system.cpu.dcache.avgBlocked::no_targets          nan                       # average number of cycles each access was blocked ((Cycle/Count))
system.cpu.dcache.writebacks::writebacks           18                       # number of writebacks (Count)
system.cpu.dcache.writebacks::total                18                       # number of writebacks (Count)
system.cpu.dcache.demandMshrHits::cpu.data          778                       # number of demand (read+write) MSHR hits (Count)
system.cpu.dcache.demandMshrHits::total           778                       # number of demand (read+write) MSHR hits (Count)
system.cpu.dcache.overallMshrHits::cpu.data          778                       # number of overall MSHR hits (Count)
system.cpu.dcache.overallMshrHits::total          778                       # number of overall MSHR hits (Count)
system.cpu.dcache.demandMshrMisses::cpu.data          529                       # number of demand (read+write) MSHR misses (Count)
system.cpu.dcache.demandMshrMisses::total          529                       # number of demand (read+write) MSHR misses (Count)
system.cpu.dcache.overallMshrMisses::cpu.data          529                       # number of overall MSHR misses (Count)
system.cpu.dcache.overallMshrMisses::total          529                       # number of overall MSHR misses (Count)
system.cpu.dcache.demandMshrMissLatency::cpu.data     31138500                       # number of demand (read+write) MSHR miss ticks (Tick)
system.cpu.dcache.demandMshrMissLatency::total     31138500                       # number of demand (read+write) MSHR miss ticks (Tick)
system.cpu.dcache.overallMshrMissLatency::cpu.data     31138500                       # number of overall MSHR miss ticks (Tick)
system.cpu.dcache.overallMshrMissLatency::total     31138500                       # number of overall MSHR miss ticks (Tick)
system.cpu.dcache.demandMshrMissRate::cpu.data     0.053848                       # mshr miss ratio for demand accesses (Ratio)
system.cpu.dcache.demandMshrMissRate::total     0.053848                       # mshr miss ratio for demand accesses (Ratio)
system.cpu.dcache.overallMshrMissRate::cpu.data     0.053848                       # mshr miss ratio for overall accesses (Ratio)
system.cpu.dcache.overallMshrMissRate::total     0.053848                       # mshr miss ratio for overall accesses (Ratio)
system.cpu.dcache.demandAvgMshrMissLatency::cpu.data 58862.948960                       # average overall mshr miss latency ((Cycle/Count))
system.cpu.dcache.demandAvgMshrMissLatency::total 58862.948960                       # average overall mshr miss latency ((Cycle/Count))
system.cpu.dcache.overallAvgMshrMissLatency::cpu.data 58862.948960                       # average overall mshr miss latency ((Cycle/Count))
system.cpu.dcache.overallAvgMshrMissLatency::total 58862.948960                       # average overall mshr miss latency ((Cycle/Count))
system.cpu.dcache.replacements                     42                       # number of replacements (Count)
system.cpu.dcache.ReadReq.hits::cpu.data         5900                       # number of ReadReq hits (Count)
system.cpu.dcache.ReadReq.hits::total            5900                       # number of ReadReq hits (Count)
system.cpu.dcache.ReadReq.misses::cpu.data         1054                       # number of ReadReq misses (Count)
system.cpu.dcache.ReadReq.misses::total          1054                       # number of ReadReq misses (Count)
system.cpu.dcache.ReadReq.missLatency::cpu.data     53954000                       # number of ReadReq miss ticks (Tick)
system.cpu.dcache.ReadReq.missLatency::total     53954000                       # number of ReadReq miss ticks (Tick)
system.cpu.dcache.ReadReq.accesses::cpu.data         6954                       # number of ReadReq accesses(hits+misses) (Count)
system.cpu.dcache.ReadReq.accesses::total         6954                       # number of ReadReq accesses(hits+misses) (Count)
system.cpu.dcache.ReadReq.missRate::cpu.data     0.151567                       # miss rate for ReadReq accesses (Ratio)
system.cpu.dcache.ReadReq.missRate::total     0.151567                       # miss rate for ReadReq accesses (Ratio)
system.cpu.dcache.ReadReq.avgMissLatency::cpu.data 51189.753321                       # average ReadReq miss latency ((Tick/Count))
system.cpu.dcache.ReadReq.avgMissLatency::total 51189.753321                       # average ReadReq miss latency ((Tick/Count))
system.cpu.dcache.ReadReq.mshrHits::cpu.data          774                       # number of ReadReq MSHR hits (Count)
system.cpu.dcache.ReadReq.mshrHits::total          774                       # number of ReadReq MSHR hits (Count)
system.cpu.dcache.ReadReq.mshrMisses::cpu.data          280                       # number of ReadReq MSHR misses (Count)
system.cpu.dcache.ReadReq.mshrMisses::total          280                       # number of ReadReq MSHR misses (Count)
system.cpu.dcache.ReadReq.mshrMissLatency::cpu.data     16789500                       # number of ReadReq MSHR miss ticks (Tick)
system.cpu.dcache.ReadReq.mshrMissLatency::total     16789500                       # number of ReadReq MSHR miss ticks (Tick)
system.cpu.dcache.ReadReq.mshrMissRate::cpu.data     0.040265                       # mshr miss rate for ReadReq accesses (Ratio)
system.cpu.dcache.ReadReq.mshrMissRate::total     0.040265                       # mshr miss rate for ReadReq accesses (Ratio)
system.cpu.dcache.ReadReq.avgMshrMissLatency::cpu.data 59962.500000                       # average ReadReq mshr miss latency ((Tick/Count))
system.cpu.dcache.ReadReq.avgMshrMissLatency::total 59962.500000                       # average ReadReq mshr miss latency ((Tick/Count))
system.cpu.dcache.WriteReq.hits::cpu.data         2617                       # number of WriteReq hits (Count)
system.cpu.dcache.WriteReq.hits::total           2617                       # number of WriteReq hits (Count)
system.cpu.dcache.WriteReq.misses::cpu.data          253                       # number of WriteReq misses (Count)
system.cpu.dcache.WriteReq.misses::total          253                       # number of WriteReq misses (Count)
system.cpu.dcache.WriteReq.missLatency::cpu.data     14817499                       # number of WriteReq miss ticks (Tick)
system.cpu.dcache.WriteReq.missLatency::total     14817499                       # number of WriteReq miss ticks (Tick)
system.cpu.dcache.WriteReq.accesses::cpu.data         2870                       # number of WriteReq accesses(hits+misses) (Count)
system.cpu.dcache.WriteReq.accesses::total         2870                       # number of WriteReq accesses(hits+misses) (Count)
system.cpu.dcache.WriteReq.missRate::cpu.data     0.088153                       # miss rate for WriteReq accesses (Ratio)
system.cpu.dcache.WriteReq.missRate::total     0.088153                       # miss rate for WriteReq accesses (Ratio)
system.cpu.dcache.WriteReq.avgMissLatency::cpu.data 58567.189723                       # average WriteReq miss latency ((Tick/Count))
system.cpu.dcache.WriteReq.avgMissLatency::total 58567.189723                       # average WriteReq miss latency ((Tick/Count))
system.cpu.dcache.WriteReq.mshrHits::cpu.data            4                       # number of WriteReq MSHR hits (Count)
system.cpu.dcache.WriteReq.mshrHits::total            4                       # number of WriteReq MSHR hits (Count)
system.cpu.dcache.WriteReq.mshrMisses::cpu.data          249                       # number of WriteReq MSHR misses (Count)
system.cpu.dcache.WriteReq.mshrMisses::total          249                       # number of WriteReq MSHR misses (Count)
system.cpu.dcache.WriteReq.mshrMissLatency::cpu.data     14349000                       # number of WriteReq MSHR miss ticks (Tick)
system.cpu.dcache.WriteReq.mshrMissLatency::total     14349000                       # number of WriteReq MSHR miss ticks (Tick)
system.cpu.dcache.WriteReq.mshrMissRate::cpu.data     0.086760                       # mshr miss rate for WriteReq accesses (Ratio)
system.cpu.dcache.WriteReq.mshrMissRate::total     0.086760                       # mshr miss rate for WriteReq accesses (Ratio)
system.cpu.dcache.WriteReq.avgMshrMissLatency::cpu.data 57626.506024                       # average WriteReq mshr miss latency ((Tick/Count))
system.cpu.dcache.WriteReq.avgMshrMissLatency::total 57626.506024                       # average WriteReq mshr miss latency ((Tick/Count))
system.cpu.dcache.power_state.pwrStateResidencyTicks::UNDEFINED     49310000                       # Cumulative time (in ticks) in various power states (Tick)
system.cpu.dcache.tags.tagsInUse           293.500268                       # Average ticks per tags in use ((Tick/Count))
system.cpu.dcache.tags.totalRefs                 9046                       # Total number of references to valid blocks. (Count)
system.cpu.dcache.tags.sampledRefs                529                       # Sample count of references to valid blocks. (Count)
system.cpu.dcache.tags.avgRefs              17.100189                       # Average number of references to valid blocks. ((Count/Count))
system.cpu.dcache.tags.warmupTick              150000                       # The tick when the warmup percentage was hit. (Tick)
system.cpu.dcache.tags.occupancies::cpu.data   293.500268                       # Average occupied blocks per tick, per requestor ((Count/Tick))
system.cpu.dcache.tags.avgOccs::cpu.data     0.286621                       # Average percentage of cache occupancy ((Ratio/Tick))
system.cpu.dcache.tags.avgOccs::total        0.286621                       # Average percentage of cache occupancy ((Ratio/Tick))
system.cpu.dcache.tags.occupanciesTaskId::1024          487                       # Occupied blocks per task id (Count)
system.cpu.dcache.tags.ageTaskId_1024::0          108                       # Occupied blocks per task id, per block age (Count)
system.cpu.dcache.tags.ageTaskId_1024::1          379                       # Occupied blocks per task id, per block age (Count)
system.cpu.dcache.tags.ratioOccsTaskId::1024     0.475586                       # Ratio of occupied blocks and all blocks, per task id (Ratio)
system.cpu.dcache.tags.tagAccesses              20177                       # Number of tag accesses (Count)
system.cpu.dcache.tags.dataAccesses             20177                       # Number of data accesses (Count)
system.cpu.dcache.tags.power_state.pwrStateResidencyTicks::UNDEFINED     49310000                       # Cumulative time (in ticks) in various power states (Tick)
system.cpu.decode.idleCycles                    30510                       # Number of cycles decode is idle (Cycle)
system.cpu.decode.blockedCycles                 22559                       # Number of cycles decode is blocked (Cycle)
system.cpu.decode.runCycles                     10296                       # Number of cycles decode is running (Cycle)
system.cpu.decode.unblockCycles                  1467                       # Number of cycles decode is unblocking (Cycle)
system.cpu.decode.squashCycles                    994                       # Number of cycles decode is squashing (Cycle)
system.cpu.decode.branchResolved                 3012                       # Number of times decode resolved a branch (Count)
system.cpu.decode.branchMispred                   352                       # Number of times decode detected a branch misprediction (Count)
system.cpu.decode.decodedInsts                  79602                       # Number of instructions handled by decode (Count)
system.cpu.decode.squashedInsts                  1665                       # Number of squashed instructions handled by decode (Count)
system.cpu.dtb_walker_cache.blockedCycles::no_mshrs            0                       # number of cycles access was blocked (Cycle)
system.cpu.dtb_walker_cache.blockedCycles::no_targets            0                       # number of cycles access was blocked (Cycle)
system.cpu.dtb_walker_cache.blockedCauses::no_mshrs            0                       # number of times access was blocked (Count)
system.cpu.dtb_walker_cache.blockedCauses::no_targets            0                       # number of times access was blocked (Count)
system.cpu.dtb_walker_cache.avgBlocked::no_mshrs          nan                       # average number of cycles each access was blocked ((Cycle/Count))
system.cpu.dtb_walker_cache.avgBlocked::no_targets          nan                       # average number of cycles each access was blocked ((Cycle/Count))
system.cpu.dtb_walker_cache.replacements            0                       # number of replacements (Count)
system.cpu.dtb_walker_cache.power_state.pwrStateResidencyTicks::UNDEFINED     49310000                       # Cumulative time (in ticks) in various power states (Tick)
system.cpu.dtb_walker_cache.tags.tagsInUse            0                       # Average ticks per tags in use ((Tick/Count))
system.cpu.dtb_walker_cache.tags.totalRefs            0                       # Total number of references to valid blocks. (Count)
system.cpu.dtb_walker_cache.tags.sampledRefs            0                       # Sample count of references to valid blocks. (Count)
system.cpu.dtb_walker_cache.tags.avgRefs          nan                       # Average number of references to valid blocks. ((Count/Count))
system.cpu.dtb_walker_cache.tags.warmupTick            0                       # The tick when the warmup percentage was hit. (Tick)
system.cpu.dtb_walker_cache.tags.tagAccesses            0                       # Number of tag accesses (Count)
system.cpu.dtb_walker_cache.tags.dataAccesses            0                       # Number of data accesses (Count)
system.cpu.dtb_walker_cache.tags.power_state.pwrStateResidencyTicks::UNDEFINED     49310000                       # Cumulative time (in ticks) in various power states (Tick)
system.cpu.fetch.icacheStallCycles              32490                       # Number of cycles fetch is stalled on an Icache miss (Cycle)
system.cpu.fetch.insts                          44829                       # Number of instructions fetch has processed (Count)
system.cpu.fetch.branches                        9993                       # Number of branches that fetch encountered (Count)
system.cpu.fetch.predictedBranches               3471                       # Number of branches that fetch has predicted taken (Count)
system.cpu.fetch.cycles                         32000                       # Number of cycles fetch has run and was not squashing or blocked (Cycle)
system.cpu.fetch.squashCycles                    2672                       # Number of cycles fetch has spent squashing (Cycle)
system.cpu.fetch.cacheLines                      6016                       # Number of cache lines fetched (Count)
system.cpu.fetch.icacheSquashes                   695                       # Number of outstanding Icache misses that were squashed (Count)
system.cpu.fetch.nisnDist::samples              65826                       # Number of instructions fetched each cycle (Total) (Count)
system.cpu.fetch.nisnDist::mean              1.347917                       # Number of instructions fetched each cycle (Total) (Count)
system.cpu.fetch.nisnDist::stdev             2.817228                       # Number of instructions fetched each cycle (Total) (Count)
system.cpu.fetch.nisnDist::underflows               0      0.00%      0.00% # Number of instructions fetched each cycle (Total) (Count)
system.cpu.fetch.nisnDist::0                    52159     79.24%     79.24% # Number of instructions fetched each cycle (Total) (Count)
system.cpu.fetch.nisnDist::1                      609      0.93%     80.16% # Number of instructions fetched each cycle (Total) (Count)
system.cpu.fetch.nisnDist::2                      558      0.85%     81.01% # Number of instructions fetched each cycle (Total) (Count)
system.cpu.fetch.nisnDist::3                      668      1.01%     82.03% # Number of instructions fetched each cycle (Total) (Count)
system.cpu.fetch.nisnDist::4                     1123      1.71%     83.73% # Number of instructions fetched each cycle (Total) (Count)
system.cpu.fetch.nisnDist::5                      980      1.49%     85.22% # Number of instructions fetched each cycle (Total) (Count)
system.cpu.fetch.nisnDist::6                      717      1.09%     86.31% # Number of instructions fetched each cycle (Total) (Count)
system.cpu.fetch.nisnDist::7                      791      1.20%     87.51% # Number of instructions fetched each cycle (Total) (Count)
system.cpu.fetch.nisnDist::8                     8221     12.49%    100.00% # Number of instructions fetched each cycle (Total) (Count)
system.cpu.fetch.nisnDist::overflows                0      0.00%    100.00% # Number of instructions fetched each cycle (Total) (Count)
system.cpu.fetch.nisnDist::min_value                0                       # Number of instructions fetched each cycle (Total) (Count)
system.cpu.fetch.nisnDist::max_value                8                       # Number of instructions fetched each cycle (Total) (Count)
system.cpu.fetch.nisnDist::total                65826                       # Number of instructions fetched each cycle (Total) (Count)
system.cpu.fetch.branchRate                  0.101327                       # Number of branch fetches per cycle (Ratio)
system.cpu.fetch.rate                        0.454558                       # Number of inst fetches per cycle ((Count/Cycle))
system.cpu.icache.demandHits::cpu.inst           4996                       # number of demand (read+write) hits (Count)
system.cpu.icache.demandHits::total              4996                       # number of demand (read+write) hits (Count)
system.cpu.icache.overallHits::cpu.inst          4996                       # number of overall hits (Count)
system.cpu.icache.overallHits::total             4996                       # number of overall hits (Count)
system.cpu.icache.demandMisses::cpu.inst         1020                       # number of demand (read+write) misses (Count)
system.cpu.icache.demandMisses::total            1020                       # number of demand (read+write) misses (Count)
system.cpu.icache.overallMisses::cpu.inst         1020                       # number of overall misses (Count)
system.cpu.icache.overallMisses::total           1020                       # number of overall misses (Count)
system.cpu.icache.demandMissLatency::cpu.inst     55943500                       # number of demand (read+write) miss ticks (Tick)
system.cpu.icache.demandMissLatency::total     55943500                       # number of demand (read+write) miss ticks (Tick)
system.cpu.icache.overallMissLatency::cpu.inst     55943500                       # number of overall miss ticks (Tick)
system.cpu.icache.overallMissLatency::total     55943500                       # number of overall miss ticks (Tick)
system.cpu.icache.demandAccesses::cpu.inst         6016                       # number of demand (read+write) accesses (Count)
system.cpu.icache.demandAccesses::total          6016                       # number of demand (read+write) accesses (Count)
system.cpu.icache.overallAccesses::cpu.inst         6016                       # number of overall (read+write) accesses (Count)
system.cpu.icache.overallAccesses::total         6016                       # number of overall (read+write) accesses (Count)
system.cpu.icache.demandMissRate::cpu.inst     0.169548                       # miss rate for demand accesses (Ratio)
system.cpu.icache.demandMissRate::total      0.169548                       # miss rate for demand accesses (Ratio)
system.cpu.icache.overallMissRate::cpu.inst     0.169548                       # miss rate for overall accesses (Ratio)
system.cpu.icache.overallMissRate::total     0.169548                       # miss rate for overall accesses (Ratio)
system.cpu.icache.demandAvgMissLatency::cpu.inst 54846.568627                       # average overall miss latency ((Cycle/Count))
system.cpu.icache.demandAvgMissLatency::total 54846.568627                       # average overall miss latency ((Cycle/Count))
system.cpu.icache.overallAvgMissLatency::cpu.inst 54846.568627                       # average overall miss latency ((Cycle/Count))
system.cpu.icache.overallAvgMissLatency::total 54846.568627                       # average overall miss latency ((Cycle/Count))
system.cpu.icache.blockedCycles::no_mshrs          140                       # number of cycles access was blocked (Cycle)
system.cpu.icache.blockedCycles::no_targets            0                       # number of cycles access was blocked (Cycle)
system.cpu.icache.blockedCauses::no_mshrs            2                       # number of times access was blocked (Count)
system.cpu.icache.blockedCauses::no_targets            0                       # number of times access was blocked (Count)
system.cpu.icache.avgBlocked::no_mshrs             70                       # average number of cycles each access was blocked ((Cycle/Count))
system.cpu.icache.avgBlocked::no_targets          nan                       # average number of cycles each access was blocked ((Cycle/Count))
system.cpu.icache.writebacks::writebacks           72                       # number of writebacks (Count)
system.cpu.icache.writebacks::total                72                       # number of writebacks (Count)
system.cpu.icache.demandMshrHits::cpu.inst          293                       # number of demand (read+write) MSHR hits (Count)
system.cpu.icache.demandMshrHits::total           293                       # number of demand (read+write) MSHR hits (Count)
system.cpu.icache.overallMshrHits::cpu.inst          293                       # number of overall MSHR hits (Count)
system.cpu.icache.overallMshrHits::total          293                       # number of overall MSHR hits (Count)
system.cpu.icache.demandMshrMisses::cpu.inst          727                       # number of demand (read+write) MSHR misses (Count)
system.cpu.icache.demandMshrMisses::total          727                       # number of demand (read+write) MSHR misses (Count)
system.cpu.icache.overallMshrMisses::cpu.inst          727                       # number of overall MSHR misses (Count)
system.cpu.icache.overallMshrMisses::total          727                       # number of overall MSHR misses (Count)
system.cpu.icache.demandMshrMissLatency::cpu.inst     42192500                       # number of demand (read+write) MSHR miss ticks (Tick)
system.cpu.icache.demandMshrMissLatency::total     42192500                       # number of demand (read+write) MSHR miss ticks (Tick)
system.cpu.icache.overallMshrMissLatency::cpu.inst     42192500                       # number of overall MSHR miss ticks (Tick)
system.cpu.icache.overallMshrMissLatency::total     42192500                       # number of overall MSHR miss ticks (Tick)
system.cpu.icache.demandMshrMissRate::cpu.inst     0.120844                       # mshr miss ratio for demand accesses (Ratio)
system.cpu.icache.demandMshrMissRate::total     0.120844                       # mshr miss ratio for demand accesses (Ratio)
system.cpu.icache.overallMshrMissRate::cpu.inst     0.120844                       # mshr miss ratio for overall accesses (Ratio)
system.cpu.icache.overallMshrMissRate::total     0.120844                       # mshr miss ratio for overall accesses (Ratio)
system.cpu.icache.demandAvgMshrMissLatency::cpu.inst 58036.451169                       # average overall mshr miss latency ((Cycle/Count))
system.cpu.icache.demandAvgMshrMissLatency::total 58036.451169                       # average overall mshr miss latency ((Cycle/Count))
system.cpu.icache.overallAvgMshrMissLatency::cpu.inst 58036.451169                       # average overall mshr miss latency ((Cycle/Count))
system.cpu.icache.overallAvgMshrMissLatency::total 58036.451169                       # average overall mshr miss latency ((Cycle/Count))
system.cpu.icache.replacements                     72                       # number of replacements (Count)
system.cpu.icache.ReadReq.hits::cpu.inst         4996                       # number of ReadReq hits (Count)
system.cpu.icache.ReadReq.hits::total            4996                       # number of ReadReq hits (Count)
system.cpu.icache.ReadReq.misses::cpu.inst         1020                       # number of ReadReq misses (Count)
system.cpu.icache.ReadReq.misses::total          1020                       # number of ReadReq misses (Count)
system.cpu.icache.ReadReq.missLatency::cpu.inst     55943500                       # number of ReadReq miss ticks (Tick)
system.cpu.icache.ReadReq.missLatency::total     55943500                       # number of ReadReq miss ticks (Tick)
system.cpu.icache.ReadReq.accesses::cpu.inst         6016                       # number of ReadReq accesses(hits+misses) (Count)
system.cpu.icache.ReadReq.accesses::total         6016                       # number of ReadReq accesses(hits+misses) (Count)
system.cpu.icache.ReadReq.missRate::cpu.inst     0.169548                       # miss rate for ReadReq accesses (Ratio)
system.cpu.icache.ReadReq.missRate::total     0.169548                       # miss rate for ReadReq accesses (Ratio)
system.cpu.icache.ReadReq.avgMissLatency::cpu.inst 54846.568627                       # average ReadReq miss latency ((Tick/Count))
system.cpu.icache.ReadReq.avgMissLatency::total 54846.568627                       # average ReadReq miss latency ((Tick/Count))
system.cpu.icache.ReadReq.mshrHits::cpu.inst          293                       # number of ReadReq MSHR hits (Count)
system.cpu.icache.ReadReq.mshrHits::total          293                       # number of ReadReq MSHR hits (Count)
system.cpu.icache.ReadReq.mshrMisses::cpu.inst          727                       # number of ReadReq MSHR misses (Count)
system.cpu.icache.ReadReq.mshrMisses::total          727                       # number of ReadReq MSHR misses (Count)
system.cpu.icache.ReadReq.mshrMissLatency::cpu.inst     42192500                       # number of ReadReq MSHR miss ticks (Tick)
system.cpu.icache.ReadReq.mshrMissLatency::total     42192500                       # number of ReadReq MSHR miss ticks (Tick)
system.cpu.icache.ReadReq.mshrMissRate::cpu.inst     0.120844                       # mshr miss rate for ReadReq accesses (Ratio)
system.cpu.icache.ReadReq.mshrMissRate::total     0.120844                       # mshr miss rate for ReadReq accesses (Ratio)
system.cpu.icache.ReadReq.avgMshrMissLatency::cpu.inst 58036.451169                       # average ReadReq mshr miss latency ((Tick/Count))
system.cpu.icache.ReadReq.avgMshrMissLatency::total 58036.451169                       # average ReadReq mshr miss latency ((Tick/Count))
system.cpu.icache.power_state.pwrStateResidencyTicks::UNDEFINED     49310000                       # Cumulative time (in ticks) in various power states (Tick)
system.cpu.icache.tags.tagsInUse           379.778286                       # Average ticks per tags in use ((Tick/Count))
system.cpu.icache.tags.totalRefs                 5723                       # Total number of references to valid blocks. (Count)
system.cpu.icache.tags.sampledRefs                727                       # Sample count of references to valid blocks. (Count)
system.cpu.icache.tags.avgRefs               7.872077                       # Average number of references to valid blocks. ((Count/Count))
system.cpu.icache.tags.warmupTick               77000                       # The tick when the warmup percentage was hit. (Tick)
system.cpu.icache.tags.occupancies::cpu.inst   379.778286                       # Average occupied blocks per tick, per requestor ((Count/Tick))
system.cpu.icache.tags.avgOccs::cpu.inst     0.370877                       # Average percentage of cache occupancy ((Ratio/Tick))
system.cpu.icache.tags.avgOccs::total        0.370877                       # Average percentage of cache occupancy ((Ratio/Tick))
system.cpu.icache.tags.occupanciesTaskId::1024          655                       # Occupied blocks per task id (Count)
system.cpu.icache.tags.ageTaskId_1024::0           78                       # Occupied blocks per task id, per block age (Count)
system.cpu.icache.tags.ageTaskId_1024::1          577                       # Occupied blocks per task id, per block age (Count)
system.cpu.icache.tags.ratioOccsTaskId::1024     0.639648                       # Ratio of occupied blocks and all blocks, per task id (Ratio)
system.cpu.icache.tags.tagAccesses              12759                       # Number of tag accesses (Count)
system.cpu.icache.tags.dataAccesses             12759                       # Number of data accesses (Count)
system.cpu.icache.tags.power_state.pwrStateResidencyTicks::UNDEFINED     49310000                       # Cumulative time (in ticks) in various power states (Tick)
system.cpu.iew.idleCycles                           0                       # Number of cycles IEW is idle (Cycle)
system.cpu.iew.squashCycles                       994                       # Number of cycles IEW is squashing (Cycle)
system.cpu.iew.blockCycles                       9191                       # Number of cycles IEW is blocking (Cycle)
system.cpu.iew.unblockCycles                     1243                       # Number of cycles IEW is unblocking (Cycle)
system.cpu.iew.dispatchedInsts                  71162                       # Number of instructions dispatched to IQ (Count)
system.cpu.iew.dispSquashedInsts                  173                       # Number of squashed instructions skipped by dispatch (Count)
system.cpu.iew.dispLoadInsts                     8369                       # Number of dispatched load instructions (Count)
system.cpu.iew.dispStoreInsts                    4337                       # Number of dispatched store instructions (Count)
system.cpu.iew.dispNonSpecInsts                     1                       # Number of dispatched non-speculative instructions (Count)
system.cpu.iew.iqFullEvents                       102                       # Number of times the IQ has become full, causing a stall (Count)
system.cpu.iew.lsqFullEvents                     1085                       # Number of times the LSQ has become full, causing a stall (Count)
system.cpu.iew.memOrderViolationEvents             45                       # Number of memory order violations (Count)
system.cpu.iew.predictedTakenIncorrect            151                       # Number of branches that were predicted taken incorrectly (Count)
system.cpu.iew.predictedNotTakenIncorrect          982                       # Number of branches that were predicted not taken incorrectly (Count)
system.cpu.iew.branchMispredicts                 1133                       # Number of branch mispredicts detected at execute (Count)
system.cpu.iew.instsToCommit                    59458                       # Cumulative count of insts sent to commit (Count)
system.cpu.iew.writebackCount                   59074                       # Cumulative count of insts written-back (Count)
system.cpu.iew.producerInst                     42600                       # Number of instructions producing a value (Count)
system.cpu.iew.consumerInst                     70503                       # Number of instructions consuming a value (Count)
system.cpu.iew.wbRate                        0.599000                       # Insts written-back per cycle ((Count/Cycle))
system.cpu.iew.wbFanout                      0.604230                       # Average fanout of values written-back ((Count/Count))
system.cpu.interrupts.clk_domain.clock           8000                       # Clock period in ticks (Tick)
system.cpu.itb_walker_cache.blockedCycles::no_mshrs            0                       # number of cycles access was blocked (Cycle)
system.cpu.itb_walker_cache.blockedCycles::no_targets            0                       # number of cycles access was blocked (Cycle)
system.cpu.itb_walker_cache.blockedCauses::no_mshrs            0                       # number of times access was blocked (Count)
system.cpu.itb_walker_cache.blockedCauses::no_targets            0                       # number of times access was blocked (Count)
system.cpu.itb_walker_cache.avgBlocked::no_mshrs          nan                       # average number of cycles each access was blocked ((Cycle/Count))
system.cpu.itb_walker_cache.avgBlocked::no_targets          nan                       # average number of cycles each access was blocked ((Cycle/Count))
system.cpu.itb_walker_cache.replacements            0                       # number of replacements (Count)
system.cpu.itb_walker_cache.power_state.pwrStateResidencyTicks::UNDEFINED     49310000                       # Cumulative time (in ticks) in various power states (Tick)
system.cpu.itb_walker_cache.tags.tagsInUse            0                       # Average ticks per tags in use ((Tick/Count))
system.cpu.itb_walker_cache.tags.totalRefs            0                       # Total number of references to valid blocks. (Count)
system.cpu.itb_walker_cache.tags.sampledRefs            0                       # Sample count of references to valid blocks. (Count)
system.cpu.itb_walker_cache.tags.avgRefs          nan                       # Average number of references to valid blocks. ((Count/Count))
system.cpu.itb_walker_cache.tags.warmupTick            0                       # The tick when the warmup percentage was hit. (Tick)
system.cpu.itb_walker_cache.tags.tagAccesses            0                       # Number of tag accesses (Count)
system.cpu.itb_walker_cache.tags.dataAccesses            0                       # Number of data accesses (Count)
system.cpu.itb_walker_cache.tags.power_state.pwrStateResidencyTicks::UNDEFINED     49310000                       # Cumulative time (in ticks) in various power states (Tick)
system.cpu.lsq0.forwLoads                         352                       # Number of loads that had data forwarded from stores (Count)
system.cpu.lsq0.squashedLoads                    3975                       # Number of loads squashed (Count)
system.cpu.lsq0.ignoredResponses                    7                       # Number of memory responses ignored because the instruction is squashed (Count)
system.cpu.lsq0.memOrderViolation                  45                       # Number of memory ordering violations (Count)
system.cpu.lsq0.squashedStores                   1468                       # Number of stores squashed (Count)
system.cpu.lsq0.rescheduledLoads                    1                       # Number of loads that were rescheduled (Count)
system.cpu.lsq0.blockedByCache                     45                       # Number of times an access to memory failed due to the cache being blocked (Count)
system.cpu.lsq0.loadToUse::samples               4394                       # Distribution of cycle latency between the first time a load is issued and its completion (Unspecified)
system.cpu.lsq0.loadToUse::mean             21.661356                       # Distribution of cycle latency between the first time a load is issued and its completion (Unspecified)
system.cpu.lsq0.loadToUse::stdev            42.067478                       # Distribution of cycle latency between the first time a load is issued and its completion (Unspecified)
system.cpu.lsq0.loadToUse::0-9                   3631     82.64%     82.64% # Distribution of cycle latency between the first time a load is issued and its completion (Unspecified)
system.cpu.lsq0.loadToUse::10-19                   15      0.34%     82.98% # Distribution of cycle latency between the first time a load is issued and its completion (Unspecified)
system.cpu.lsq0.loadToUse::20-29                    7      0.16%     83.14% # Distribution of cycle latency between the first time a load is issued and its completion (Unspecified)
system.cpu.lsq0.loadToUse::30-39                    6      0.14%     83.27% # Distribution of cycle latency between the first time a load is issued and its completion (Unspecified)
system.cpu.lsq0.loadToUse::40-49                    8      0.18%     83.45% # Distribution of cycle latency between the first time a load is issued and its completion (Unspecified)
system.cpu.lsq0.loadToUse::50-59                    3      0.07%     83.52% # Distribution of cycle latency between the first time a load is issued and its completion (Unspecified)
system.cpu.lsq0.loadToUse::60-69                   11      0.25%     83.77% # Distribution of cycle latency between the first time a load is issued and its completion (Unspecified)
system.cpu.lsq0.loadToUse::70-79                    8      0.18%     83.96% # Distribution of cycle latency between the first time a load is issued and its completion (Unspecified)
system.cpu.lsq0.loadToUse::80-89                   17      0.39%     84.34% # Distribution of cycle latency between the first time a load is issued and its completion (Unspecified)
system.cpu.lsq0.loadToUse::90-99                   73      1.66%     86.00% # Distribution of cycle latency between the first time a load is issued and its completion (Unspecified)
system.cpu.lsq0.loadToUse::100-109                310      7.06%     93.06% # Distribution of cycle latency between the first time a load is issued and its completion (Unspecified)
system.cpu.lsq0.loadToUse::110-119                153      3.48%     96.54% # Distribution of cycle latency between the first time a load is issued and its completion (Unspecified)
system.cpu.lsq0.loadToUse::120-129                 23      0.52%     97.06% # Distribution of cycle latency between the first time a load is issued and its completion (Unspecified)
system.cpu.lsq0.loadToUse::130-139                 36      0.82%     97.88% # Distribution of cycle latency between the first time a load is issued and its completion (Unspecified)
[...]
system.mem_ctrls.dram.bwWrite::total         23362401                       # Write bandwidth from this memory ((Byte/Second))
system.mem_ctrls.dram.bwTotal::writebacks     23362401                       # Total bandwidth to/from this memory ((Byte/Second))
system.mem_ctrls.dram.bwTotal::cpu.inst     943581424                       # Total bandwidth to/from this memory ((Byte/Second))
system.mem_ctrls.dram.bwTotal::cpu.data     686595011                       # Total bandwidth to/from this memory ((Byte/Second))
system.mem_ctrls.dram.bwTotal::total       1653538836                       # Total bandwidth to/from this memory ((Byte/Second))
system.mem_ctrls.dram.readBursts                 1252                       # Number of DRAM read bursts (Count)
system.mem_ctrls.dram.writeBursts                  64                       # Number of DRAM write bursts (Count)
system.mem_ctrls.dram.perBankRdBursts::0           70                       # Per bank write bursts (Count)
system.mem_ctrls.dram.perBankRdBursts::1           95                       # Per bank write bursts (Count)
system.mem_ctrls.dram.perBankRdBursts::2           27                       # Per bank write bursts (Count)
system.mem_ctrls.dram.perBankRdBursts::3            3                       # Per bank write bursts (Count)
system.mem_ctrls.dram.perBankRdBursts::4           35                       # Per bank write bursts (Count)
system.mem_ctrls.dram.perBankRdBursts::5           59                       # Per bank write bursts (Count)
system.mem_ctrls.dram.perBankRdBursts::6           79                       # Per bank write bursts (Count)
system.mem_ctrls.dram.perBankRdBursts::7          125                       # Per bank write bursts (Count)
system.mem_ctrls.dram.perBankRdBursts::8           50                       # Per bank write bursts (Count)
system.mem_ctrls.dram.perBankRdBursts::9          131                       # Per bank write bursts (Count)
system.mem_ctrls.dram.perBankRdBursts::10           67                       # Per bank write bursts (Count)
system.mem_ctrls.dram.perBankRdBursts::11          142                       # Per bank write bursts (Count)
system.mem_ctrls.dram.perBankRdBursts::12          106                       # Per bank write bursts (Count)
system.mem_ctrls.dram.perBankRdBursts::13           50                       # Per bank write bursts (Count)
system.mem_ctrls.dram.perBankRdBursts::14           92                       # Per bank write bursts (Count)
system.mem_ctrls.dram.perBankRdBursts::15          121                       # Per bank write bursts (Count)
system.mem_ctrls.dram.perBankWrBursts::0           10                       # Per bank write bursts (Count)
system.mem_ctrls.dram.perBankWrBursts::1            0                       # Per bank write bursts (Count)
system.mem_ctrls.dram.perBankWrBursts::2            0                       # Per bank write bursts (Count)
system.mem_ctrls.dram.perBankWrBursts::3            0                       # Per bank write bursts (Count)
system.mem_ctrls.dram.perBankWrBursts::4            0                       # Per bank write bursts (Count)
system.mem_ctrls.dram.perBankWrBursts::5            7                       # Per bank write bursts (Count)
system.mem_ctrls.dram.perBankWrBursts::6            8                       # Per bank write bursts (Count)
system.mem_ctrls.dram.perBankWrBursts::7           11                       # Per bank write bursts (Count)
system.mem_ctrls.dram.perBankWrBursts::8            1                       # Per bank write bursts (Count)
system.mem_ctrls.dram.perBankWrBursts::9            0                       # Per bank write bursts (Count)
system.mem_ctrls.dram.perBankWrBursts::10            0                       # Per bank write bursts (Count)
system.mem_ctrls.dram.perBankWrBursts::11           16                       # Per bank write bursts (Count)
system.mem_ctrls.dram.perBankWrBursts::12            4                       # Per bank write bursts (Count)
system.mem_ctrls.dram.perBankWrBursts::13            7                       # Per bank write bursts (Count)
system.mem_ctrls.dram.perBankWrBursts::14            0                       # Per bank write bursts (Count)
system.mem_ctrls.dram.perBankWrBursts::15            0                       # Per bank write bursts (Count)
system.mem_ctrls.dram.totQLat                10143250                       # Total ticks spent queuing (Tick)
system.mem_ctrls.dram.totBusLat               6260000                       # Total ticks spent in databus transfers (Tick)
system.mem_ctrls.dram.totMemAccLat           33618250                       # Total ticks spent from burst creation until serviced by the DRAM (Tick)
system.mem_ctrls.dram.avgQLat                 8101.64                       # Average queueing delay per DRAM burst ((Tick/Count))
system.mem_ctrls.dram.avgBusLat               5000.00                       # Average bus latency per DRAM burst ((Tick/Count))
system.mem_ctrls.dram.avgMemAccLat           26851.64                       # Average memory access latency per DRAM burst ((Tick/Count))
system.mem_ctrls.dram.readRowHits                1038                       # Number of row buffer hits during reads (Count)
system.mem_ctrls.dram.writeRowHits                 53                       # Number of row buffer hits during writes (Count)
system.mem_ctrls.dram.readRowHitRate            82.91                       # Row buffer hit rate for reads (Ratio)
system.mem_ctrls.dram.writeRowHitRate           82.81                       # Row buffer hit rate for writes (Ratio)
system.mem_ctrls.dram.bytesPerActivate::samples          217                       # Bytes accessed per row activation (Byte)
system.mem_ctrls.dram.bytesPerActivate::mean   377.806452                       # Bytes accessed per row activation (Byte)
system.mem_ctrls.dram.bytesPerActivate::gmean   226.442426                       # Bytes accessed per row activation (Byte)
system.mem_ctrls.dram.bytesPerActivate::stdev   357.319210                       # Bytes accessed per row activation (Byte)
system.mem_ctrls.dram.bytesPerActivate::0-127           64     29.49%     29.49% # Bytes accessed per row activation (Byte)
system.mem_ctrls.dram.bytesPerActivate::128-255           48     22.12%     51.61% # Bytes accessed per row activation (Byte)
system.mem_ctrls.dram.bytesPerActivate::256-383           24     11.06%     62.67% # Bytes accessed per row activation (Byte)
system.mem_ctrls.dram.bytesPerActivate::384-511           14      6.45%     69.12% # Bytes accessed per row activation (Byte)
system.mem_ctrls.dram.bytesPerActivate::512-639           11      5.07%     74.19% # Bytes accessed per row activation (Byte)
system.mem_ctrls.dram.bytesPerActivate::640-767            6      2.76%     76.96% # Bytes accessed per row activation (Byte)
system.mem_ctrls.dram.bytesPerActivate::768-895           11      5.07%     82.03% # Bytes accessed per row activation (Byte)
system.mem_ctrls.dram.bytesPerActivate::896-1023            5      2.30%     84.33% # Bytes accessed per row activation (Byte)
system.mem_ctrls.dram.bytesPerActivate::1024-1151           34     15.67%    100.00% # Bytes accessed per row activation (Byte)
system.mem_ctrls.dram.bytesPerActivate::total          217                       # Bytes accessed per row activation (Byte)
system.mem_ctrls.dram.bytesRead                 80128                       # Total bytes read (Byte)
system.mem_ctrls.dram.bytesWritten               4096                       # Total bytes written (Byte)
system.mem_ctrls.dram.avgRdBW             1624.984790                       # Average DRAM read bandwidth in MiBytes/s ((Byte/Second))
system.mem_ctrls.dram.avgWrBW               83.066315                       # Average DRAM write bandwidth in MiBytes/s ((Byte/Second))
system.mem_ctrls.dram.peakBW                 12800.00                       # Theoretical peak bandwidth in MiByte/s ((Byte/Second))
system.mem_ctrls.dram.busUtil                   13.34                       # Data bus utilization in percentage (Ratio)
system.mem_ctrls.dram.busUtilRead               12.70                       # Data bus utilization in percentage for reads (Ratio)
system.mem_ctrls.dram.busUtilWrite               0.65                       # Data bus utilization in percentage for writes (Ratio)
system.mem_ctrls.dram.pageHitRate               82.90                       # Row buffer hit rate, read and write combined (Ratio)
system.mem_ctrls.dram.power_state.pwrStateResidencyTicks::UNDEFINED     49310000                       # Cumulative time (in ticks) in various power states (Tick)
system.mem_ctrls.dram.rank0.actEnergy          656880                       # Energy for activate commands per rank (pJ) (Joule)
system.mem_ctrls.dram.rank0.preEnergy          330165                       # Energy for precharge commands per rank (pJ) (Joule)
system.mem_ctrls.dram.rank0.readEnergy        3520020                       # Energy for read commands per rank (pJ) (Joule)
system.mem_ctrls.dram.rank0.writeEnergy        187920                       # Energy for write commands per rank (pJ) (Joule)
system.mem_ctrls.dram.rank0.refreshEnergy 3687840.000000                       # Energy for refresh commands per rank (pJ) (Joule)
system.mem_ctrls.dram.rank0.actBackEnergy     21728400                       # Energy for active background per rank (pJ) (Joule)
system.mem_ctrls.dram.rank0.preBackEnergy       637440                       # Energy for precharge background per rank (pJ) (Joule)
system.mem_ctrls.dram.rank0.actPowerDownEnergy            0                       # Energy for active power-down per rank (pJ) (Joule)
system.mem_ctrls.dram.rank0.prePowerDownEnergy            0                       # Energy for precharge power-down per rank (pJ) (Joule)
system.mem_ctrls.dram.rank0.selfRefreshEnergy            0                       # Energy for self refresh per rank (pJ) (Joule)
system.mem_ctrls.dram.rank0.totalEnergy      30748665                       # Total energy per rank (pJ) (Joule)
system.mem_ctrls.dram.rank0.averagePower   623.578686                       # Core power per rank (mW) (Watt)
system.mem_ctrls.dram.rank0.totalIdleTime            0                       # Total Idle time Per DRAM Rank (Tick)
system.mem_ctrls.dram.rank0.pwrStateTime::IDLE      1492750                       # Time in different power states (Tick)
system.mem_ctrls.dram.rank0.pwrStateTime::REF      1560000                       # Time in different power states (Tick)
system.mem_ctrls.dram.rank0.pwrStateTime::SREF            0                       # Time in different power states (Tick)
system.mem_ctrls.dram.rank0.pwrStateTime::PRE_PDN            0                       # Time in different power states (Tick)
system.mem_ctrls.dram.rank0.pwrStateTime::ACT     46257250                       # Time in different power states (Tick)
system.mem_ctrls.dram.rank0.pwrStateTime::ACT_PDN            0                       # Time in different power states (Tick)
system.mem_ctrls.dram.rank1.actEnergy          949620                       # Energy for activate commands per rank (pJ) (Joule)
system.mem_ctrls.dram.rank1.preEnergy          493350                       # Energy for precharge commands per rank (pJ) (Joule)
system.mem_ctrls.dram.rank1.readEnergy        5419260                       # Energy for read commands per rank (pJ) (Joule)
system.mem_ctrls.dram.rank1.writeEnergy        146160                       # Energy for write commands per rank (pJ) (Joule)
system.mem_ctrls.dram.rank1.refreshEnergy 3687840.000000                       # Energy for refresh commands per rank (pJ) (Joule)
system.mem_ctrls.dram.rank1.actBackEnergy     20759400                       # Energy for active background per rank (pJ) (Joule)
system.mem_ctrls.dram.rank1.preBackEnergy      1453440                       # Energy for precharge background per rank (pJ) (Joule)
system.mem_ctrls.dram.rank1.actPowerDownEnergy            0                       # Energy for active power-down per rank (pJ) (Joule)
system.mem_ctrls.dram.rank1.prePowerDownEnergy            0                       # Energy for precharge power-down per rank (pJ) (Joule)
system.mem_ctrls.dram.rank1.selfRefreshEnergy            0                       # Energy for self refresh per rank (pJ) (Joule)
system.mem_ctrls.dram.rank1.totalEnergy      32909070                       # Total energy per rank (pJ) (Joule)
system.mem_ctrls.dram.rank1.averagePower   667.391401                       # Core power per rank (mW) (Watt)
system.mem_ctrls.dram.rank1.totalIdleTime            0                       # Total Idle time Per DRAM Rank (Tick)
system.mem_ctrls.dram.rank1.pwrStateTime::IDLE      3605000                       # Time in different power states (Tick)
system.mem_ctrls.dram.rank1.pwrStateTime::REF      1560000                       # Time in different power states (Tick)
system.mem_ctrls.dram.rank1.pwrStateTime::SREF            0                       # Time in different power states (Tick)
system.mem_ctrls.dram.rank1.pwrStateTime::PRE_PDN            0                       # Time in different power states (Tick)
system.mem_ctrls.dram.rank1.pwrStateTime::ACT     44145000                       # Time in different power states (Tick)
system.mem_ctrls.dram.rank1.pwrStateTime::ACT_PDN            0                       # Time in different power states (Tick)
system.mem_ctrls.power_state.pwrStateResidencyTicks::UNDEFINED     49310000                       # Cumulative time (in ticks) in various power states (Tick)
system.membus.transDist::ReadResp                1007                       # Transaction distribution (Count)
system.membus.transDist::WritebackDirty            18                       # Transaction distribution (Count)
system.membus.transDist::WritebackClean            72                       # Transaction distribution (Count)
system.membus.transDist::CleanEvict                24                       # Transaction distribution (Count)
system.membus.transDist::ReadExReq                249                       # Transaction distribution (Count)
system.membus.transDist::ReadExResp               249                       # Transaction distribution (Count)
system.membus.transDist::ReadCleanReq             727                       # Transaction distribution (Count)
system.membus.transDist::ReadSharedReq            280                       # Transaction distribution (Count)
system.membus.pktCount_system.cpu.icache.mem_side_port::system.mem_ctrls.port         1526                       # Packet count per connected requestor and responder (Count)
system.membus.pktCount_system.cpu.icache.mem_side_port::total         1526                       # Packet count per connected requestor and responder (Count)
system.membus.pktCount_system.cpu.dcache.mem_side_port::system.mem_ctrls.port         1100                       # Packet count per connected requestor and responder (Count)
system.membus.pktCount_system.cpu.dcache.mem_side_port::total         1100                       # Packet count per connected requestor and responder (Count)
system.membus.pktCount::total                    2626                       # Packet count per connected requestor and responder (Count)
system.membus.pktSize_system.cpu.icache.mem_side_port::system.mem_ctrls.port        51136                       # Cumulative packet size per connected requestor and responder (Byte)
system.membus.pktSize_system.cpu.icache.mem_side_port::total        51136                       # Cumulative packet size per connected requestor and responder (Byte)
system.membus.pktSize_system.cpu.dcache.mem_side_port::system.mem_ctrls.port        35008                       # Cumulative packet size per connected requestor and responder (Byte)
system.membus.pktSize_system.cpu.dcache.mem_side_port::total        35008                       # Cumulative packet size per connected requestor and responder (Byte)
system.membus.pktSize::total                    86144                       # Cumulative packet size per connected requestor and responder (Byte)
system.membus.snoops                                0                       # Total snoops (Count)
system.membus.snoopTraffic                          0                       # Total snoop traffic (Byte)
system.membus.snoopFanout::samples               1256                       # Request fanout histogram (Count)
system.membus.snoopFanout::mean              0.000796                       # Request fanout histogram (Count)
system.membus.snoopFanout::stdev             0.028217                       # Request fanout histogram (Count)
system.membus.snoopFanout::underflows               0      0.00%      0.00% # Request fanout histogram (Count)
system.membus.snoopFanout::0                     1255     99.92%     99.92% # Request fanout histogram (Count)
system.membus.snoopFanout::1                        1      0.08%    100.00% # Request fanout histogram (Count)
system.membus.snoopFanout::2                        0      0.00%    100.00% # Request fanout histogram (Count)
system.membus.snoopFanout::3                        0      0.00%    100.00% # Request fanout histogram (Count)
system.membus.snoopFanout::4                        0      0.00%    100.00% # Request fanout histogram (Count)
system.membus.snoopFanout::overflows                0      0.00%    100.00% # Request fanout histogram (Count)
system.membus.snoopFanout::min_value                0                       # Request fanout histogram (Count)
system.membus.snoopFanout::max_value                1                       # Request fanout histogram (Count)
system.membus.snoopFanout::total                 1256                       # Request fanout histogram (Count)
system.membus.power_state.pwrStateResidencyTicks::UNDEFINED     49310000                       # Cumulative time (in ticks) in various power states (Tick)
system.membus.reqLayer2.occupancy             1969500                       # Layer occupancy (ticks) (Tick)
system.membus.reqLayer2.utilization               0.0                       # Layer utilization (Ratio)
system.membus.respLayer1.occupancy            3852500                       # Layer occupancy (ticks) (Tick)
system.membus.respLayer1.utilization              0.1                       # Layer utilization (Ratio)
system.membus.respLayer2.occupancy            2812000                       # Layer occupancy (ticks) (Tick)
system.membus.respLayer2.utilization              0.1                       # Layer utilization (Ratio)
system.membus.snoop_filter.totRequests           1370                       # Total number of requests made to the snoop filter. (Count)
system.membus.snoop_filter.hitSingleRequests          114                       # Number of requests hitting in the snoop filter with a single holder of the requested data. (Count)
system.membus.snoop_filter.hitMultiRequests            1                       # Number of requests hitting in the snoop filter with multiple (>1) holders of the requested data. (Count)
system.membus.snoop_filter.totSnoops                0                       # Total number of snoops made to the snoop filter. (Count)
system.membus.snoop_filter.hitSingleSnoops            0                       # Number of snoops hitting in the snoop filter with a single holder of the requested data. (Count)
system.membus.snoop_filter.hitMultiSnoops            0                       # Number of snoops hitting in the snoop filter with multiple (>1) holders of the requested data. (Count)
system.voltage_domain.voltage                       1                       # Voltage in Volts (Volt)
system.workload.inst.arm                            0                       # number of arm instructions executed (Count)
system.workload.inst.quiesce                        0                       # number of quiesce instructions executed (Count)

---------- End Simulation Statistics   ----------
